&HEAD CHID='9_1929_6ms_het'
      TITLE='9_1929_6ms_het' /

&MESH ID='MESH1',  IJK=25,45,125,  XB=0,200,0,360,0,150/
&MESH ID='MESH2',  IJK=40,90,125,  XB=200,360,0,360,0,150/
&MESH ID='MESH3',  IJK=20,180,125,  XB=360,400,0,360,0,150/
&MESH ID='MESH4',  IJK=175,15,125,  XB=400,750,0,30,0,150/
&MESH ID='MESH5',  IJK=175,20,125,  XB=400,750,30,70,0,150/
&MESH ID='MESH6',  IJK=350,10,125,  XB=400,750,70,80,0,150/
&MESH ID='MESH7',  IJK=350,10,125,  XB=400,750,80,90,0,150/
&MESH ID='MESH8',  IJK=350,10,125,  XB=400,750,90,100,0,150/
&MESH ID='MESH9',  IJK=350,10,125,  XB=400,750,100,110,0,150/
&MESH ID='MESH10',  IJK=350,10,125,  XB=400,750,110,120,0,150/
&MESH ID='MESH11',  IJK=350,10,125,  XB=400,750,120,130,0,150/
&MESH ID='MESH12',  IJK=350,10,125,  XB=400,750,130,140,0,150/
&MESH ID='MESH13',  IJK=350,10,125,  XB=400,750,140,150,0,150/
&MESH ID='MESH14',  IJK=350,10,125,  XB=400,750,150,160,0,150/
&MESH ID='MESH15',  IJK=350,10,125,  XB=400,750,160,170,0,150/
&MESH ID='MESH16',  IJK=350,10,125,  XB=400,750,170,180,0,150/
&MESH ID='MESH17',  IJK=350,10,125,  XB=400,750,180,190,0,150/
&MESH ID='MESH18',  IJK=350,10,125,  XB=400,750,190,200,0,150/
&MESH ID='MESH19',  IJK=350,10,125,  XB=400,750,200,210,0,150/
&MESH ID='MESH20',  IJK=350,10,125,  XB=400,750,210,220,0,150/
&MESH ID='MESH21',  IJK=350,10,125,  XB=400,750,220,230,0,150/
&MESH ID='MESH22',  IJK=350,10,125,  XB=400,750,230,240,0,150/
&MESH ID='MESH23',  IJK=350,10,125,  XB=400,750,240,250,0,150/
&MESH ID='MESH24',  IJK=350,10,125,  XB=400,750,250,260,0,150/
&MESH ID='MESH25',  IJK=350,10,125,  XB=400,750,260,270,0,150/
&MESH ID='MESH26',  IJK=350,10,125,  XB=400,750,270,280,0,150/
&MESH ID='MESH27',  IJK=350,10,125,  XB=400,750,280,290,0,150/
&MESH ID='MESH28',  IJK=175,20,125,  XB=400,750,290,330,0,150/
&MESH ID='MESH29',  IJK=175,15,125,  XB=400,750,330,360,0,150/
&MESH ID='MESH30',  IJK=10,180,125,  XB=750,770,0,360,0,150/
&MESH ID='MESH31',  IJK=20,90,125,  XB=770,850,0,360,0,150/

&TRNZ IDERIV=1,CC=0.,PC=0.5,MESH_NUMBER=1 /
&TRNZ IDERIV=1,CC=0.,PC=0.5,MESH_NUMBER=2 /
&TRNZ IDERIV=1,CC=0.,PC=0.5,MESH_NUMBER=3 /
&TRNZ IDERIV=1,CC=0.,PC=0.5,MESH_NUMBER=4 /
&TRNZ IDERIV=1,CC=0.,PC=0.5,MESH_NUMBER=5 /
&TRNZ IDERIV=1,CC=0.,PC=0.5,MESH_NUMBER=6 /
&TRNZ IDERIV=1,CC=0.,PC=0.5,MESH_NUMBER=7 /
&TRNZ IDERIV=1,CC=0.,PC=0.5,MESH_NUMBER=8 /
&TRNZ IDERIV=1,CC=0.,PC=0.5,MESH_NUMBER=9 /
&TRNZ IDERIV=1,CC=0.,PC=0.5,MESH_NUMBER=10 /
&TRNZ IDERIV=1,CC=0.,PC=0.5,MESH_NUMBER=11 /
&TRNZ IDERIV=1,CC=0.,PC=0.5,MESH_NUMBER=12 /
&TRNZ IDERIV=1,CC=0.,PC=0.5,MESH_NUMBER=13 /
&TRNZ IDERIV=1,CC=0.,PC=0.5,MESH_NUMBER=14 /
&TRNZ IDERIV=1,CC=0.,PC=0.5,MESH_NUMBER=15 /
&TRNZ IDERIV=1,CC=0.,PC=0.5,MESH_NUMBER=16 /
&TRNZ IDERIV=1,CC=0.,PC=0.5,MESH_NUMBER=17 /
&TRNZ IDERIV=1,CC=0.,PC=0.5,MESH_NUMBER=18 /
&TRNZ IDERIV=1,CC=0.,PC=0.5,MESH_NUMBER=19 /
&TRNZ IDERIV=1,CC=0.,PC=0.5,MESH_NUMBER=20 /
&TRNZ IDERIV=1,CC=0.,PC=0.5,MESH_NUMBER=21 /
&TRNZ IDERIV=1,CC=0.,PC=0.5,MESH_NUMBER=22 /
&TRNZ IDERIV=1,CC=0.,PC=0.5,MESH_NUMBER=23 /
&TRNZ IDERIV=1,CC=0.,PC=0.5,MESH_NUMBER=24 /
&TRNZ IDERIV=1,CC=0.,PC=0.5,MESH_NUMBER=25 /
&TRNZ IDERIV=1,CC=0.,PC=0.5,MESH_NUMBER=26 /
&TRNZ IDERIV=1,CC=0.,PC=0.5,MESH_NUMBER=27 /
&TRNZ IDERIV=1,CC=0.,PC=0.5,MESH_NUMBER=28 /
&TRNZ IDERIV=1,CC=0.,PC=0.5,MESH_NUMBER=29 /
&TRNZ IDERIV=1,CC=0.,PC=0.5,MESH_NUMBER=30 /

&TRNZ IDERIV=1,CC=0.,PC=0.5,MESH_NUMBER=31 /
&TRNZ IDERIV=2,CC=0.,PC=0.0,MESH_NUMBER=1 /
&TRNZ IDERIV=2,CC=0.,PC=0.0,MESH_NUMBER=2 /
&TRNZ IDERIV=2,CC=0.,PC=0.0,MESH_NUMBER=3 /
&TRNZ IDERIV=2,CC=0.,PC=0.0,MESH_NUMBER=4 /
&TRNZ IDERIV=2,CC=0.,PC=0.0,MESH_NUMBER=5 /
&TRNZ IDERIV=2,CC=0.,PC=0.0,MESH_NUMBER=6 /
&TRNZ IDERIV=2,CC=0.,PC=0.0,MESH_NUMBER=7 /
&TRNZ IDERIV=2,CC=0.,PC=0.0,MESH_NUMBER=8 /
&TRNZ IDERIV=2,CC=0.,PC=0.0,MESH_NUMBER=9 /
&TRNZ IDERIV=2,CC=0.,PC=0.0,MESH_NUMBER=10 /
&TRNZ IDERIV=2,CC=0.,PC=0.0,MESH_NUMBER=11 /
&TRNZ IDERIV=2,CC=0.,PC=0.0,MESH_NUMBER=12 /
&TRNZ IDERIV=2,CC=0.,PC=0.0,MESH_NUMBER=13 /
&TRNZ IDERIV=2,CC=0.,PC=0.0,MESH_NUMBER=14 /
&TRNZ IDERIV=2,CC=0.,PC=0.0,MESH_NUMBER=15 /
&TRNZ IDERIV=2,CC=0.,PC=0.0,MESH_NUMBER=16 /
&TRNZ IDERIV=2,CC=0.,PC=0.0,MESH_NUMBER=17 /
&TRNZ IDERIV=2,CC=0.,PC=0.0,MESH_NUMBER=18 /
&TRNZ IDERIV=2,CC=0.,PC=0.0,MESH_NUMBER=19 /
&TRNZ IDERIV=2,CC=0.,PC=0.0,MESH_NUMBER=20 /
&TRNZ IDERIV=2,CC=0.,PC=0.0,MESH_NUMBER=21 /
&TRNZ IDERIV=2,CC=0.,PC=0.0,MESH_NUMBER=22 /
&TRNZ IDERIV=2,CC=0.,PC=0.0,MESH_NUMBER=23 /
&TRNZ IDERIV=2,CC=0.,PC=0.0,MESH_NUMBER=24 /
&TRNZ IDERIV=2,CC=0.,PC=0.0,MESH_NUMBER=25 /
&TRNZ IDERIV=2,CC=0.,PC=0.0,MESH_NUMBER=26 /
&TRNZ IDERIV=2,CC=0.,PC=0.0,MESH_NUMBER=27 /
&TRNZ IDERIV=2,CC=0.,PC=0.0,MESH_NUMBER=28 /
&TRNZ IDERIV=2,CC=0.,PC=0.0,MESH_NUMBER=29 /
&TRNZ IDERIV=2,CC=0.,PC=0.0,MESH_NUMBER=30 /
&TRNZ IDERIV=2,CC=0.,PC=0.0,MESH_NUMBER=31 /

- Account for water vapor from drying vegetation
&SPEC ID='WATER VAPOR' /

&TIME TWFIN=2500. /

&MISC RADIATION=.TRUE.,BAROCLINIC=.TRUE.,TERRAIN_CASE=.FALSE.,WIND_ONLY=.FALSE. /

-Igniter fire
&SURF ID='IGN FIRE', HRRPUA=500.,RAMP_Q='RAMPFIRE' /
&RAMP ID='RAMPFIRE',T=0.0,F=0.0 /
&RAMP ID='RAMPFIRE',T=400.0,F=0.0 /
&RAMP ID='RAMPFIRE',T=415.0,F=0.5 /
&RAMP ID='RAMPFIRE',T=425.0,F=1.0 /
&RAMP ID='RAMPFIRE',T=440.0,F=1.0 /
&RAMP ID='RAMPFIRE',T=450.0,F=0.5 /
&RAMP ID='RAMPFIRE',T=470.0,F=0.0 /
&VENT XB=415,418,60,297,0,0, SURF_ID='IGN FIRE'/

- Specify parameters for combustion of fuel gases from pyrolysis of the solid fuel(s)
&REAC ID='WOOD'
      FYI='Ritchie, et al., 5th IAFSS, C_3.4 H_6.2 O_2.5'
      SOOT_YIELD = 0.02
      O          = 2.5
      C          = 3.4
      H          = 6.2
      HEAT_OF_COMBUSTION = 17700 /

- Ground VEG1 For Timber Litter fuel class based on Scott & Burgan TL3
&SURF ID = 'GROUND VEG1'
      VEGETATION = .TRUE.
      VEG_DRAG_COEFFICIENT    = 0.25
      VEG_MOISTURE = 0.06
      VEG_SV= 5028
      VEG_CHAR_FRACTION  = 0.265
      VEG_LOAD     = 1.21
      VEG_HEIGHT   = 0.09
      VEG_DENSITY= 510
      FIRELINE_MLR_MAX = 0.3 
      RGB        = 122,117,48 /	  
	  
- Ground VEG2 For regeneation fuel class based on Scott & Burgan TL1
&SURF ID = 'GROUND VEG2'
      VEGETATION = .TRUE.
      VEG_DRAG_COEFFICIENT    = 0.25
      VEG_MOISTURE = 0.06
      VEG_SV= 5632
      VEG_CHAR_FRACTION  = 0.265
      VEG_LOAD     = 1.50
      VEG_HEIGHT   = 0.06
      VEG_DENSITY= 510
      FIRELINE_MLR_MAX = 0.3 
      RGB        = 102,255,102 /
	  
- Ground VEG3 For Bear clover fuel class based on Scott & Burgan GS2
&SURF ID = 'GROUND VEG3'
      VEGETATION = .TRUE.
      VEG_DRAG_COEFFICIENT    = 0.25
      VEG_MOISTURE = 0.06
      VEG_SV= 5992
      VEG_CHAR_FRACTION  = 0.265
      VEG_LOAD     = 0.59
      VEG_HEIGHT   = 0.46
      VEG_DENSITY= 510
      FIRELINE_MLR_MAX = 0.3 
      RGB        = 0,102,0 /
	 
- Ground VEG4 For Shrub fuel class based on Scott & Burgan SH2
&SURF ID = 'GROUND VEG4'     
      VEGETATION = .TRUE.
      VEG_DRAG_COEFFICIENT    = 0.25
      VEG_MOISTURE = 0.06
      VEG_SV= 5484
      VEG_CHAR_FRACTION  = 0.265
      VEG_LOAD     = 1.90
      VEG_HEIGHT   = 0.31
      VEG_DENSITY= 510
      FIRELINE_MLR_MAX = 0.3
      RGB        = 153,153,0 /

### Boundary area surface fuels
&VENT XB=1,415,1,360,0,0,SURF_ID='GROUND VEG1' / 
&VENT XB=418,490,1,360,0,0,SURF_ID='GROUND VEG1' / 
&VENT XB=490,739,1,60,0,0,SURF_ID='GROUND VEG1' / 
&VENT XB=490,739,297,360,0,0,SURF_ID='GROUND VEG1' / 
&VENT XB=739,851,1,360,0,0,SURF_ID='GROUND VEG1' / 


&VENT XB=490,493,60,63,0,0,SURF_ID='GROUND VEG1' /
&VENT XB=490,493,63,66,0,0,SURF_ID='GROUND VEG1' /
&VENT XB=490,493,66,69,0,0,SURF_ID='GROUND VEG1' /
&VENT XB=490,493,69,72,0,0,SURF_ID='GROUND VEG1' /
&VENT XB=490,493,72,75,0,0,SURF_ID='GROUND VEG1' /
&VENT XB=490,493,75,78,0,0,SURF_ID='GROUND VEG1' /
&VENT XB=490,493,78,81,0,0,SURF_ID='GROUND VEG4' /
&VENT XB=490,493,81,84,0,0,SURF_ID='GROUND VEG4' /
&VENT XB=490,493,84,87,0,0,SURF_ID='GROUND VEG4' /
&VENT XB=490,493,87,90,0,0,SURF_ID='GROUND VEG1' /
&VENT XB=490,493,270,273,0,0,SURF_ID='GROUND VEG3' /
&VENT XB=490,493,273,276,0,0,SURF_ID='GROUND VEG3' /
&VENT XB=490,493,276,279,0,0,SURF_ID='GROUND VEG3' /
&VENT XB=490,493,279,282,0,0,SURF_ID='GROUND VEG3' /
&VENT XB=490,493,282,285,0,0,SURF_ID='GROUND VEG3' /
&VENT XB=490,493,285,288,0,0,SURF_ID='GROUND VEG1' /
&VENT XB=490,493,288,291,0,0,SURF_ID='GROUND VEG1' /
&VENT XB=490,493,291,294,0,0,SURF_ID='GROUND VEG1' /
&VENT XB=490,493,294,297,0,0,SURF_ID='GROUND VEG1' /
&VENT XB=490,493,90,93,0,0,SURF_ID='GROUND VEG3' /
&VENT XB=490,493,93,96,0,0,SURF_ID='GROUND VEG3' /
&VENT XB=490,493,96,99,0,0,SURF_ID='GROUND VEG3' /
&VENT XB=490,493,99,102,0,0,SURF_ID='GROUND VEG3' /
&VENT XB=490,493,102,105,0,0,SURF_ID='GROUND VEG3' /
&VENT XB=490,493,105,108,0,0,SURF_ID='GROUND VEG1' /
&VENT XB=490,493,108,111,0,0,SURF_ID='GROUND VEG1' /
&VENT XB=490,493,111,114,0,0,SURF_ID='GROUND VEG1' /
&VENT XB=490,493,114,117,0,0,SURF_ID='GROUND VEG1' /
&VENT XB=490,493,117,120,0,0,SURF_ID='GROUND VEG3' /
&VENT XB=490,493,120,123,0,0,SURF_ID='GROUND VEG3' /
&VENT XB=490,493,123,126,0,0,SURF_ID='GROUND VEG1' /
&VENT XB=490,493,126,129,0,0,SURF_ID='GROUND VEG1' /
&VENT XB=490,493,129,132,0,0,SURF_ID='GROUND VEG1' /
&VENT XB=490,493,132,135,0,0,SURF_ID='GROUND VEG1' /
&VENT XB=490,493,135,138,0,0,SURF_ID='GROUND VEG1' /
&VENT XB=490,493,138,141,0,0,SURF_ID='GROUND VEG1' /
&VENT XB=490,493,141,144,0,0,SURF_ID='GROUND VEG1' /
&VENT XB=490,493,144,147,0,0,SURF_ID='GROUND VEG1' /
&VENT XB=490,493,147,150,0,0,SURF_ID='GROUND VEG1' /
&VENT XB=490,493,150,153,0,0,SURF_ID='GROUND VEG1' /
&VENT XB=490,493,153,156,0,0,SURF_ID='GROUND VEG1' /
&VENT XB=490,493,156,159,0,0,SURF_ID='GROUND VEG1' /
&VENT XB=490,493,159,162,0,0,SURF_ID='GROUND VEG1' /
&VENT XB=490,493,162,165,0,0,SURF_ID='GROUND VEG1' /
&VENT XB=490,493,165,168,0,0,SURF_ID='GROUND VEG1' /
&VENT XB=490,493,168,171,0,0,SURF_ID='GROUND VEG1' /
&VENT XB=490,493,171,174,0,0,SURF_ID='GROUND VEG1' /
&VENT XB=490,493,174,177,0,0,SURF_ID='GROUND VEG1' /
&VENT XB=490,493,177,180,0,0,SURF_ID='GROUND VEG1' /
&VENT XB=490,493,180,183,0,0,SURF_ID='GROUND VEG1' /
&VENT XB=490,493,183,186,0,0,SURF_ID='GROUND VEG1' /
&VENT XB=490,493,186,189,0,0,SURF_ID='GROUND VEG1' /
&VENT XB=490,493,189,192,0,0,SURF_ID='GROUND VEG1' /
&VENT XB=490,493,192,195,0,0,SURF_ID='GROUND VEG1' /
&VENT XB=490,493,195,198,0,0,SURF_ID='GROUND VEG1' /
&VENT XB=490,493,198,201,0,0,SURF_ID='GROUND VEG1' /
&VENT XB=490,493,201,204,0,0,SURF_ID='GROUND VEG3' /
&VENT XB=490,493,204,207,0,0,SURF_ID='GROUND VEG3' /
&VENT XB=490,493,207,210,0,0,SURF_ID='GROUND VEG1' /
&VENT XB=490,493,210,213,0,0,SURF_ID='GROUND VEG1' /
&VENT XB=490,493,213,216,0,0,SURF_ID='GROUND VEG1' /
&VENT XB=490,493,216,219,0,0,SURF_ID='GROUND VEG1' /
&VENT XB=490,493,219,222,0,0,SURF_ID='GROUND VEG1' /
&VENT XB=490,493,222,225,0,0,SURF_ID='GROUND VEG1' /
&VENT XB=490,493,225,228,0,0,SURF_ID='GROUND VEG1' /
&VENT XB=490,493,228,231,0,0,SURF_ID='GROUND VEG1' /
&VENT XB=490,493,231,234,0,0,SURF_ID='GROUND VEG1' /
&VENT XB=490,493,234,237,0,0,SURF_ID='GROUND VEG1' /
&VENT XB=490,493,237,240,0,0,SURF_ID='GROUND VEG1' /
&VENT XB=490,493,240,243,0,0,SURF_ID='GROUND VEG1' /
&VENT XB=490,493,243,246,0,0,SURF_ID='GROUND VEG1' /
&VENT XB=490,493,246,249,0,0,SURF_ID='GROUND VEG1' /
&VENT XB=490,493,249,252,0,0,SURF_ID='GROUND VEG1' /
&VENT XB=490,493,252,255,0,0,SURF_ID='GROUND VEG1' /
&VENT XB=490,493,255,258,0,0,SURF_ID='GROUND VEG1' /
&VENT XB=490,493,258,261,0,0,SURF_ID='GROUND VEG4' /
&VENT XB=490,493,261,264,0,0,SURF_ID='GROUND VEG4' /
&VENT XB=490,493,264,267,0,0,SURF_ID='GROUND VEG4' /
&VENT XB=490,493,267,270,0,0,SURF_ID='GROUND VEG1' /
&VENT XB=493,496,60,63,0,0,SURF_ID='GROUND VEG1' /
&VENT XB=493,496,63,66,0,0,SURF_ID='GROUND VEG1' /
&VENT XB=493,496,66,69,0,0,SURF_ID='GROUND VEG1' /
&VENT XB=493,496,69,72,0,0,SURF_ID='GROUND VEG1' /
&VENT XB=493,496,72,75,0,0,SURF_ID='GROUND VEG1' /
&VENT XB=493,496,75,78,0,0,SURF_ID='GROUND VEG1' /
&VENT XB=493,496,78,81,0,0,SURF_ID='GROUND VEG4' /
&VENT XB=493,496,81,84,0,0,SURF_ID='GROUND VEG4' /
&VENT XB=493,496,84,87,0,0,SURF_ID='GROUND VEG4' /
&VENT XB=493,496,87,90,0,0,SURF_ID='GROUND VEG4' /
&VENT XB=493,496,270,273,0,0,SURF_ID='GROUND VEG3' /
&VENT XB=493,496,273,276,0,0,SURF_ID='GROUND VEG3' /
&VENT XB=493,496,276,279,0,0,SURF_ID='GROUND VEG3' /
&VENT XB=493,496,279,282,0,0,SURF_ID='GROUND VEG3' /
&VENT XB=493,496,282,285,0,0,SURF_ID='GROUND VEG3' /
&VENT XB=493,496,285,288,0,0,SURF_ID='GROUND VEG3' /
&VENT XB=493,496,288,291,0,0,SURF_ID='GROUND VEG1' /
&VENT XB=493,496,291,294,0,0,SURF_ID='GROUND VEG1' /
&VENT XB=493,496,294,297,0,0,SURF_ID='GROUND VEG1' /
&VENT XB=493,496,90,93,0,0,SURF_ID='GROUND VEG3' /
&VENT XB=493,496,93,96,0,0,SURF_ID='GROUND VEG3' /
&VENT XB=493,496,96,99,0,0,SURF_ID='GROUND VEG3' /
&VENT XB=493,496,99,102,0,0,SURF_ID='GROUND VEG3' /
&VENT XB=493,496,102,105,0,0,SURF_ID='GROUND VEG3' /
&VENT XB=493,496,105,108,0,0,SURF_ID='GROUND VEG3' /
&VENT XB=493,496,108,111,0,0,SURF_ID='GROUND VEG1' /
&VENT XB=493,496,111,114,0,0,SURF_ID='GROUND VEG1' /
&VENT XB=493,496,114,117,0,0,SURF_ID='GROUND VEG1' /
&VENT XB=493,496,117,120,0,0,SURF_ID='GROUND VEG1' /
&VENT XB=493,496,120,123,0,0,SURF_ID='GROUND VEG3' /
&VENT XB=493,496,123,126,0,0,SURF_ID='GROUND VEG1' /
&VENT XB=493,496,126,129,0,0,SURF_ID='GROUND VEG1' /
&VENT XB=493,496,129,132,0,0,SURF_ID='GROUND VEG1' /
&VENT XB=493,496,132,135,0,0,SURF_ID='GROUND VEG1' /
&VENT XB=493,496,135,138,0,0,SURF_ID='GROUND VEG1' /
&VENT XB=493,496,138,141,0,0,SURF_ID='GROUND VEG1' /
&VENT XB=493,496,141,144,0,0,SURF_ID='GROUND VEG1' /
&VENT XB=493,496,144,147,0,0,SURF_ID='GROUND VEG1' /
&VENT XB=493,496,147,150,0,0,SURF_ID='GROUND VEG1' /
&VENT XB=493,496,150,153,0,0,SURF_ID='GROUND VEG1' /
&VENT XB=493,496,153,156,0,0,SURF_ID='GROUND VEG1' /
&VENT XB=493,496,156,159,0,0,SURF_ID='GROUND VEG1' /
&VENT XB=493,496,159,162,0,0,SURF_ID='GROUND VEG1' /
&VENT XB=493,496,162,165,0,0,SURF_ID='GROUND VEG1' /
&VENT XB=493,496,165,168,0,0,SURF_ID='GROUND VEG1' /
&VENT XB=493,496,168,171,0,0,SURF_ID='GROUND VEG1' /
&VENT XB=493,496,171,174,0,0,SURF_ID='GROUND VEG1' /
&VENT XB=493,496,174,177,0,0,SURF_ID='GROUND VEG1' /
&VENT XB=493,496,177,180,0,0,SURF_ID='GROUND VEG1' /
&VENT XB=493,496,180,183,0,0,SURF_ID='GROUND VEG1' /
&VENT XB=493,496,183,186,0,0,SURF_ID='GROUND VEG1' /
&VENT XB=493,496,186,189,0,0,SURF_ID='GROUND VEG1' /
&VENT XB=493,496,189,192,0,0,SURF_ID='GROUND VEG1' /
&VENT XB=493,496,192,195,0,0,SURF_ID='GROUND VEG1' /
&VENT XB=493,496,195,198,0,0,SURF_ID='GROUND VEG1' /
&VENT XB=493,496,198,201,0,0,SURF_ID='GROUND VEG3' /
&VENT XB=493,496,201,204,0,0,SURF_ID='GROUND VEG3' /
&VENT XB=493,496,204,207,0,0,SURF_ID='GROUND VEG3' /
&VENT XB=493,496,207,210,0,0,SURF_ID='GROUND VEG1' /
&VENT XB=493,496,210,213,0,0,SURF_ID='GROUND VEG1' /
&VENT XB=493,496,213,216,0,0,SURF_ID='GROUND VEG1' /
&VENT XB=493,496,216,219,0,0,SURF_ID='GROUND VEG1' /
&VENT XB=493,496,219,222,0,0,SURF_ID='GROUND VEG1' /
&VENT XB=493,496,222,225,0,0,SURF_ID='GROUND VEG1' /
&VENT XB=493,496,225,228,0,0,SURF_ID='GROUND VEG1' /
&VENT XB=493,496,228,231,0,0,SURF_ID='GROUND VEG1' /
&VENT XB=493,496,231,234,0,0,SURF_ID='GROUND VEG1' /
&VENT XB=493,496,234,237,0,0,SURF_ID='GROUND VEG1' /
&VENT XB=493,496,237,240,0,0,SURF_ID='GROUND VEG1' /
&VENT XB=493,496,240,243,0,0,SURF_ID='GROUND VEG1' /
&VENT XB=493,496,243,246,0,0,SURF_ID='GROUND VEG1' /
&VENT XB=493,496,246,249,0,0,SURF_ID='GROUND VEG1' /
&VENT XB=493,496,249,252,0,0,SURF_ID='GROUND VEG1' /
&VENT XB=493,496,252,255,0,0,SURF_ID='GROUND VEG1' /
&VENT XB=493,496,255,258,0,0,SURF_ID='GROUND VEG1' /
&VENT XB=493,496,258,261,0,0,SURF_ID='GROUND VEG4' /
&VENT XB=493,496,261,264,0,0,SURF_ID='GROUND VEG4' /
&VENT XB=493,496,264,267,0,0,SURF_ID='GROUND VEG4' /
&VENT XB=493,496,267,270,0,0,SURF_ID='GROUND VEG4' /
&VENT XB=496,499,60,63,0,0,SURF_ID='GROUND VEG1' /
&VENT XB=496,499,63,66,0,0,SURF_ID='GROUND VEG1' /
&VENT XB=496,499,66,69,0,0,SURF_ID='GROUND VEG1' /
&VENT XB=496,499,69,72,0,0,SURF_ID='GROUND VEG1' /
&VENT XB=496,499,72,75,0,0,SURF_ID='GROUND VEG1' /
&VENT XB=496,499,75,78,0,0,SURF_ID='GROUND VEG1' /
&VENT XB=496,499,78,81,0,0,SURF_ID='GROUND VEG1' /
&VENT XB=496,499,81,84,0,0,SURF_ID='GROUND VEG4' /
&VENT XB=496,499,84,87,0,0,SURF_ID='GROUND VEG4' /
&VENT XB=496,499,87,90,0,0,SURF_ID='GROUND VEG4' /
&VENT XB=496,499,270,273,0,0,SURF_ID='GROUND VEG3' /
&VENT XB=496,499,273,276,0,0,SURF_ID='GROUND VEG1' /
&VENT XB=496,499,276,279,0,0,SURF_ID='GROUND VEG1' /
&VENT XB=496,499,279,282,0,0,SURF_ID='GROUND VEG3' /
&VENT XB=496,499,282,285,0,0,SURF_ID='GROUND VEG3' /
&VENT XB=496,499,285,288,0,0,SURF_ID='GROUND VEG3' /
&VENT XB=496,499,288,291,0,0,SURF_ID='GROUND VEG3' /
&VENT XB=496,499,291,294,0,0,SURF_ID='GROUND VEG1' /
&VENT XB=496,499,294,297,0,0,SURF_ID='GROUND VEG1' /
&VENT XB=496,499,90,93,0,0,SURF_ID='GROUND VEG3' /
&VENT XB=496,499,93,96,0,0,SURF_ID='GROUND VEG1' /
&VENT XB=496,499,96,99,0,0,SURF_ID='GROUND VEG1' /
&VENT XB=496,499,99,102,0,0,SURF_ID='GROUND VEG3' /
&VENT XB=496,499,102,105,0,0,SURF_ID='GROUND VEG3' /
&VENT XB=496,499,105,108,0,0,SURF_ID='GROUND VEG3' /
&VENT XB=496,499,108,111,0,0,SURF_ID='GROUND VEG3' /
&VENT XB=496,499,111,114,0,0,SURF_ID='GROUND VEG1' /
&VENT XB=496,499,114,117,0,0,SURF_ID='GROUND VEG1' /
&VENT XB=496,499,117,120,0,0,SURF_ID='GROUND VEG1' /
&VENT XB=496,499,120,123,0,0,SURF_ID='GROUND VEG1' /
&VENT XB=496,499,123,126,0,0,SURF_ID='GROUND VEG1' /
&VENT XB=496,499,126,129,0,0,SURF_ID='GROUND VEG1' /
&VENT XB=496,499,129,132,0,0,SURF_ID='GROUND VEG1' /
&VENT XB=496,499,132,135,0,0,SURF_ID='GROUND VEG1' /
&VENT XB=496,499,135,138,0,0,SURF_ID='GROUND VEG1' /
&VENT XB=496,499,138,141,0,0,SURF_ID='GROUND VEG1' /
&VENT XB=496,499,141,144,0,0,SURF_ID='GROUND VEG3' /
&VENT XB=496,499,144,147,0,0,SURF_ID='GROUND VEG1' /
&VENT XB=496,499,147,150,0,0,SURF_ID='GROUND VEG1' /
&VENT XB=496,499,150,153,0,0,SURF_ID='GROUND VEG3' /
&VENT XB=496,499,153,156,0,0,SURF_ID='GROUND VEG1' /
&VENT XB=496,499,156,159,0,0,SURF_ID='GROUND VEG1' /
&VENT XB=496,499,159,162,0,0,SURF_ID='GROUND VEG1' /
&VENT XB=496,499,162,165,0,0,SURF_ID='GROUND VEG1' /
&VENT XB=496,499,165,168,0,0,SURF_ID='GROUND VEG1' /
&VENT XB=496,499,168,171,0,0,SURF_ID='GROUND VEG1' /
&VENT XB=496,499,171,174,0,0,SURF_ID='GROUND VEG1' /
&VENT XB=496,499,174,177,0,0,SURF_ID='GROUND VEG1' /
&VENT XB=496,499,177,180,0,0,SURF_ID='GROUND VEG1' /
&VENT XB=496,499,180,183,0,0,SURF_ID='GROUND VEG1' /
&VENT XB=496,499,183,186,0,0,SURF_ID='GROUND VEG1' /
&VENT XB=496,499,186,189,0,0,SURF_ID='GROUND VEG1' /
&VENT XB=496,499,189,192,0,0,SURF_ID='GROUND VEG1' /
&VENT XB=496,499,192,195,0,0,SURF_ID='GROUND VEG1' /
&VENT XB=496,499,195,198,0,0,SURF_ID='GROUND VEG1' /
&VENT XB=496,499,198,201,0,0,SURF_ID='GROUND VEG1' /
&VENT XB=496,499,201,204,0,0,SURF_ID='GROUND VEG1' /
&VENT XB=496,499,204,207,0,0,SURF_ID='GROUND VEG1' /
&VENT XB=496,499,207,210,0,0,SURF_ID='GROUND VEG1' /
&VENT XB=496,499,210,213,0,0,SURF_ID='GROUND VEG1' /
&VENT XB=496,499,213,216,0,0,SURF_ID='GROUND VEG1' /
&VENT XB=496,499,216,219,0,0,SURF_ID='GROUND VEG1' /
&VENT XB=496,499,219,222,0,0,SURF_ID='GROUND VEG1' /
&VENT XB=496,499,222,225,0,0,SURF_ID='GROUND VEG1' /
&VENT XB=496,499,225,228,0,0,SURF_ID='GROUND VEG1' /
&VENT XB=496,499,228,231,0,0,SURF_ID='GROUND VEG1' /
&VENT XB=496,499,231,234,0,0,SURF_ID='GROUND VEG1' /
&VENT XB=496,499,234,237,0,0,SURF_ID='GROUND VEG1' /
&VENT XB=496,499,237,240,0,0,SURF_ID='GROUND VEG1' /
&VENT XB=496,499,240,243,0,0,SURF_ID='GROUND VEG1' /
&VENT XB=496,499,243,246,0,0,SURF_ID='GROUND VEG1' /
&VENT XB=496,499,246,249,0,0,SURF_ID='GROUND VEG1' /
&VENT XB=496,499,249,252,0,0,SURF_ID='GROUND VEG1' /
&VENT XB=496,499,252,255,0,0,SURF_ID='GROUND VEG1' /
&VENT XB=496,499,255,258,0,0,SURF_ID='GROUND VEG1' /
&VENT XB=496,499,258,261,0,0,SURF_ID='GROUND VEG1' /
&VENT XB=496,499,261,264,0,0,SURF_ID='GROUND VEG4' /
&VENT XB=496,499,264,267,0,0,SURF_ID='GROUND VEG4' /
&VENT XB=496,499,267,270,0,0,SURF_ID='GROUND VEG4' /
&VENT XB=499,502,60,63,0,0,SURF_ID='GROUND VEG3' /
&VENT XB=499,502,63,66,0,0,SURF_ID='GROUND VEG1' /
&VENT XB=499,502,66,69,0,0,SURF_ID='GROUND VEG1' /
&VENT XB=499,502,69,72,0,0,SURF_ID='GROUND VEG1' /
&VENT XB=499,502,72,75,0,0,SURF_ID='GROUND VEG1' /
&VENT XB=499,502,75,78,0,0,SURF_ID='GROUND VEG1' /
&VENT XB=499,502,78,81,0,0,SURF_ID='GROUND VEG1' /
&VENT XB=499,502,81,84,0,0,SURF_ID='GROUND VEG1' /
&VENT XB=499,502,84,87,0,0,SURF_ID='GROUND VEG4' /
&VENT XB=499,502,87,90,0,0,SURF_ID='GROUND VEG4' /
&VENT XB=499,502,270,273,0,0,SURF_ID='GROUND VEG3' /
&VENT XB=499,502,273,276,0,0,SURF_ID='GROUND VEG3' /
&VENT XB=499,502,276,279,0,0,SURF_ID='GROUND VEG3' /
&VENT XB=499,502,279,282,0,0,SURF_ID='GROUND VEG3' /
&VENT XB=499,502,282,285,0,0,SURF_ID='GROUND VEG3' /
&VENT XB=499,502,285,288,0,0,SURF_ID='GROUND VEG3' /
&VENT XB=499,502,288,291,0,0,SURF_ID='GROUND VEG3' /
&VENT XB=499,502,291,294,0,0,SURF_ID='GROUND VEG3' /
&VENT XB=499,502,294,297,0,0,SURF_ID='GROUND VEG1' /
&VENT XB=499,502,90,93,0,0,SURF_ID='GROUND VEG3' /
&VENT XB=499,502,93,96,0,0,SURF_ID='GROUND VEG3' /
&VENT XB=499,502,96,99,0,0,SURF_ID='GROUND VEG3' /
&VENT XB=499,502,99,102,0,0,SURF_ID='GROUND VEG3' /
&VENT XB=499,502,102,105,0,0,SURF_ID='GROUND VEG3' /
&VENT XB=499,502,105,108,0,0,SURF_ID='GROUND VEG3' /
&VENT XB=499,502,108,111,0,0,SURF_ID='GROUND VEG3' /
&VENT XB=499,502,111,114,0,0,SURF_ID='GROUND VEG3' /
&VENT XB=499,502,114,117,0,0,SURF_ID='GROUND VEG1' /
&VENT XB=499,502,117,120,0,0,SURF_ID='GROUND VEG1' /
&VENT XB=499,502,120,123,0,0,SURF_ID='GROUND VEG1' /
&VENT XB=499,502,123,126,0,0,SURF_ID='GROUND VEG1' /
&VENT XB=499,502,126,129,0,0,SURF_ID='GROUND VEG1' /
&VENT XB=499,502,129,132,0,0,SURF_ID='GROUND VEG1' /
&VENT XB=499,502,132,135,0,0,SURF_ID='GROUND VEG1' /
&VENT XB=499,502,135,138,0,0,SURF_ID='GROUND VEG1' /
&VENT XB=499,502,138,141,0,0,SURF_ID='GROUND VEG3' /
&VENT XB=499,502,141,144,0,0,SURF_ID='GROUND VEG3' /
&VENT XB=499,502,144,147,0,0,SURF_ID='GROUND VEG3' /
&VENT XB=499,502,147,150,0,0,SURF_ID='GROUND VEG3' /
&VENT XB=499,502,150,153,0,0,SURF_ID='GROUND VEG3' /
&VENT XB=499,502,153,156,0,0,SURF_ID='GROUND VEG1' /
&VENT XB=499,502,156,159,0,0,SURF_ID='GROUND VEG1' /
&VENT XB=499,502,159,162,0,0,SURF_ID='GROUND VEG1' /
&VENT XB=499,502,162,165,0,0,SURF_ID='GROUND VEG1' /
&VENT XB=499,502,165,168,0,0,SURF_ID='GROUND VEG1' /
&VENT XB=499,502,168,171,0,0,SURF_ID='GROUND VEG1' /
&VENT XB=499,502,171,174,0,0,SURF_ID='GROUND VEG1' /
&VENT XB=499,502,174,177,0,0,SURF_ID='GROUND VEG1' /
&VENT XB=499,502,177,180,0,0,SURF_ID='GROUND VEG1' /
&VENT XB=499,502,180,183,0,0,SURF_ID='GROUND VEG1' /
&VENT XB=499,502,183,186,0,0,SURF_ID='GROUND VEG1' /
&VENT XB=499,502,186,189,0,0,SURF_ID='GROUND VEG1' /
&VENT XB=499,502,189,192,0,0,SURF_ID='GROUND VEG1' /
&VENT XB=499,502,192,195,0,0,SURF_ID='GROUND VEG1' /
&VENT XB=499,502,195,198,0,0,SURF_ID='GROUND VEG1' /
&VENT XB=499,502,198,201,0,0,SURF_ID='GROUND VEG1' /
&VENT XB=499,502,201,204,0,0,SURF_ID='GROUND VEG1' /
&VENT XB=499,502,204,207,0,0,SURF_ID='GROUND VEG1' /
&VENT XB=499,502,207,210,0,0,SURF_ID='GROUND VEG1' /
&VENT XB=499,502,210,213,0,0,SURF_ID='GROUND VEG1' /
&VENT XB=499,502,213,216,0,0,SURF_ID='GROUND VEG1' /
&VENT XB=499,502,216,219,0,0,SURF_ID='GROUND VEG1' /
&VENT XB=499,502,219,222,0,0,SURF_ID='GROUND VEG1' /
&VENT XB=499,502,222,225,0,0,SURF_ID='GROUND VEG1' /
&VENT XB=499,502,225,228,0,0,SURF_ID='GROUND VEG1' /
&VENT XB=499,502,228,231,0,0,SURF_ID='GROUND VEG1' /
&VENT XB=499,502,231,234,0,0,SURF_ID='GROUND VEG1' /
&VENT XB=499,502,234,237,0,0,SURF_ID='GROUND VEG1' /
&VENT XB=499,502,237,240,0,0,SURF_ID='GROUND VEG1' /
&VENT XB=499,502,240,243,0,0,SURF_ID='GROUND VEG3' /
&VENT XB=499,502,243,246,0,0,SURF_ID='GROUND VEG1' /
&VENT XB=499,502,246,249,0,0,SURF_ID='GROUND VEG1' /
&VENT XB=499,502,249,252,0,0,SURF_ID='GROUND VEG1' /
&VENT XB=499,502,252,255,0,0,SURF_ID='GROUND VEG1' /
&VENT XB=499,502,255,258,0,0,SURF_ID='GROUND VEG1' /
&VENT XB=499,502,258,261,0,0,SURF_ID='GROUND VEG1' /
&VENT XB=499,502,261,264,0,0,SURF_ID='GROUND VEG1' /
&VENT XB=499,502,264,267,0,0,SURF_ID='GROUND VEG4' /
&VENT XB=499,502,267,270,0,0,SURF_ID='GROUND VEG4' /
&VENT XB=502,505,60,63,0,0,SURF_ID='GROUND VEG3' /
&VENT XB=502,505,63,66,0,0,SURF_ID='GROUND VEG4' /
&VENT XB=502,505,66,69,0,0,SURF_ID='GROUND VEG4' /
&VENT XB=502,505,69,72,0,0,SURF_ID='GROUND VEG1' /
&VENT XB=502,505,72,75,0,0,SURF_ID='GROUND VEG4' /
&VENT XB=502,505,75,78,0,0,SURF_ID='GROUND VEG1' /
&VENT XB=502,505,78,81,0,0,SURF_ID='GROUND VEG1' /
&VENT XB=502,505,81,84,0,0,SURF_ID='GROUND VEG1' /
&VENT XB=502,505,84,87,0,0,SURF_ID='GROUND VEG1' /
&VENT XB=502,505,87,90,0,0,SURF_ID='GROUND VEG1' /
&VENT XB=502,505,270,273,0,0,SURF_ID='GROUND VEG3' /
&VENT XB=502,505,273,276,0,0,SURF_ID='GROUND VEG3' /
&VENT XB=502,505,276,279,0,0,SURF_ID='GROUND VEG3' /
&VENT XB=502,505,279,282,0,0,SURF_ID='GROUND VEG3' /
&VENT XB=502,505,282,285,0,0,SURF_ID='GROUND VEG3' /
&VENT XB=502,505,285,288,0,0,SURF_ID='GROUND VEG3' /
&VENT XB=502,505,288,291,0,0,SURF_ID='GROUND VEG3' /
&VENT XB=502,505,291,294,0,0,SURF_ID='GROUND VEG3' /
&VENT XB=502,505,294,297,0,0,SURF_ID='GROUND VEG4' /
&VENT XB=502,505,90,93,0,0,SURF_ID='GROUND VEG3' /
&VENT XB=502,505,93,96,0,0,SURF_ID='GROUND VEG3' /
&VENT XB=502,505,96,99,0,0,SURF_ID='GROUND VEG3' /
&VENT XB=502,505,99,102,0,0,SURF_ID='GROUND VEG3' /
&VENT XB=502,505,102,105,0,0,SURF_ID='GROUND VEG3' /
&VENT XB=502,505,105,108,0,0,SURF_ID='GROUND VEG3' /
&VENT XB=502,505,108,111,0,0,SURF_ID='GROUND VEG3' /
&VENT XB=502,505,111,114,0,0,SURF_ID='GROUND VEG3' /
&VENT XB=502,505,114,117,0,0,SURF_ID='GROUND VEG4' /
&VENT XB=502,505,117,120,0,0,SURF_ID='GROUND VEG1' /
&VENT XB=502,505,120,123,0,0,SURF_ID='GROUND VEG1' /
&VENT XB=502,505,123,126,0,0,SURF_ID='GROUND VEG1' /
&VENT XB=502,505,126,129,0,0,SURF_ID='GROUND VEG1' /
&VENT XB=502,505,129,132,0,0,SURF_ID='GROUND VEG1' /
&VENT XB=502,505,132,135,0,0,SURF_ID='GROUND VEG1' /
&VENT XB=502,505,135,138,0,0,SURF_ID='GROUND VEG1' /
&VENT XB=502,505,138,141,0,0,SURF_ID='GROUND VEG3' /
&VENT XB=502,505,141,144,0,0,SURF_ID='GROUND VEG3' /
&VENT XB=502,505,144,147,0,0,SURF_ID='GROUND VEG3' /
&VENT XB=502,505,147,150,0,0,SURF_ID='GROUND VEG3' /
&VENT XB=502,505,150,153,0,0,SURF_ID='GROUND VEG1' /
&VENT XB=502,505,153,156,0,0,SURF_ID='GROUND VEG1' /
&VENT XB=502,505,156,159,0,0,SURF_ID='GROUND VEG1' /
&VENT XB=502,505,159,162,0,0,SURF_ID='GROUND VEG1' /
&VENT XB=502,505,162,165,0,0,SURF_ID='GROUND VEG1' /
&VENT XB=502,505,165,168,0,0,SURF_ID='GROUND VEG1' /
&VENT XB=502,505,168,171,0,0,SURF_ID='GROUND VEG1' /
&VENT XB=502,505,171,174,0,0,SURF_ID='GROUND VEG1' /
&VENT XB=502,505,174,177,0,0,SURF_ID='GROUND VEG1' /
&VENT XB=502,505,177,180,0,0,SURF_ID='GROUND VEG1' /
&VENT XB=502,505,180,183,0,0,SURF_ID='GROUND VEG1' /
&VENT XB=502,505,183,186,0,0,SURF_ID='GROUND VEG1' /
&VENT XB=502,505,186,189,0,0,SURF_ID='GROUND VEG1' /
&VENT XB=502,505,189,192,0,0,SURF_ID='GROUND VEG1' /
&VENT XB=502,505,192,195,0,0,SURF_ID='GROUND VEG1' /
&VENT XB=502,505,195,198,0,0,SURF_ID='GROUND VEG1' /
&VENT XB=502,505,198,201,0,0,SURF_ID='GROUND VEG1' /
&VENT XB=502,505,201,204,0,0,SURF_ID='GROUND VEG1' /
&VENT XB=502,505,204,207,0,0,SURF_ID='GROUND VEG1' /
&VENT XB=502,505,207,210,0,0,SURF_ID='GROUND VEG1' /
&VENT XB=502,505,210,213,0,0,SURF_ID='GROUND VEG1' /
&VENT XB=502,505,213,216,0,0,SURF_ID='GROUND VEG1' /
&VENT XB=502,505,216,219,0,0,SURF_ID='GROUND VEG1' /
&VENT XB=502,505,219,222,0,0,SURF_ID='GROUND VEG1' /
&VENT XB=502,505,222,225,0,0,SURF_ID='GROUND VEG1' /
&VENT XB=502,505,225,228,0,0,SURF_ID='GROUND VEG1' /
&VENT XB=502,505,228,231,0,0,SURF_ID='GROUND VEG1' /
&VENT XB=502,505,231,234,0,0,SURF_ID='GROUND VEG1' /
&VENT XB=502,505,234,237,0,0,SURF_ID='GROUND VEG1' /
&VENT XB=502,505,237,240,0,0,SURF_ID='GROUND VEG1' /
&VENT XB=502,505,240,243,0,0,SURF_ID='GROUND VEG3' /
&VENT XB=502,505,243,246,0,0,SURF_ID='GROUND VEG4' /
&VENT XB=502,505,246,249,0,0,SURF_ID='GROUND VEG4' /
&VENT XB=502,505,249,252,0,0,SURF_ID='GROUND VEG1' /
&VENT XB=502,505,252,255,0,0,SURF_ID='GROUND VEG4' /
&VENT XB=502,505,255,258,0,0,SURF_ID='GROUND VEG1' /
&VENT XB=502,505,258,261,0,0,SURF_ID='GROUND VEG1' /
&VENT XB=502,505,261,264,0,0,SURF_ID='GROUND VEG1' /
&VENT XB=502,505,264,267,0,0,SURF_ID='GROUND VEG1' /
&VENT XB=502,505,267,270,0,0,SURF_ID='GROUND VEG1' /
&VENT XB=505,508,60,63,0,0,SURF_ID='GROUND VEG4' /
&VENT XB=505,508,63,66,0,0,SURF_ID='GROUND VEG4' /
&VENT XB=505,508,66,69,0,0,SURF_ID='GROUND VEG1' /
&VENT XB=505,508,69,72,0,0,SURF_ID='GROUND VEG1' /
&VENT XB=505,508,72,75,0,0,SURF_ID='GROUND VEG1' /
&VENT XB=505,508,75,78,0,0,SURF_ID='GROUND VEG1' /
&VENT XB=505,508,78,81,0,0,SURF_ID='GROUND VEG1' /
&VENT XB=505,508,81,84,0,0,SURF_ID='GROUND VEG1' /
&VENT XB=505,508,84,87,0,0,SURF_ID='GROUND VEG1' /
&VENT XB=505,508,87,90,0,0,SURF_ID='GROUND VEG3' /
&VENT XB=505,508,270,273,0,0,SURF_ID='GROUND VEG3' /
&VENT XB=505,508,273,276,0,0,SURF_ID='GROUND VEG3' /
&VENT XB=505,508,276,279,0,0,SURF_ID='GROUND VEG3' /
&VENT XB=505,508,279,282,0,0,SURF_ID='GROUND VEG3' /
&VENT XB=505,508,282,285,0,0,SURF_ID='GROUND VEG3' /
&VENT XB=505,508,285,288,0,0,SURF_ID='GROUND VEG3' /
&VENT XB=505,508,288,291,0,0,SURF_ID='GROUND VEG3' /
&VENT XB=505,508,291,294,0,0,SURF_ID='GROUND VEG4' /
&VENT XB=505,508,294,297,0,0,SURF_ID='GROUND VEG4' /
&VENT XB=505,508,90,93,0,0,SURF_ID='GROUND VEG3' /
&VENT XB=505,508,93,96,0,0,SURF_ID='GROUND VEG3' /
&VENT XB=505,508,96,99,0,0,SURF_ID='GROUND VEG3' /
&VENT XB=505,508,99,102,0,0,SURF_ID='GROUND VEG3' /
&VENT XB=505,508,102,105,0,0,SURF_ID='GROUND VEG3' /
&VENT XB=505,508,105,108,0,0,SURF_ID='GROUND VEG3' /
&VENT XB=505,508,108,111,0,0,SURF_ID='GROUND VEG3' /
&VENT XB=505,508,111,114,0,0,SURF_ID='GROUND VEG4' /
&VENT XB=505,508,114,117,0,0,SURF_ID='GROUND VEG4' /
&VENT XB=505,508,117,120,0,0,SURF_ID='GROUND VEG1' /
&VENT XB=505,508,120,123,0,0,SURF_ID='GROUND VEG1' /
&VENT XB=505,508,123,126,0,0,SURF_ID='GROUND VEG1' /
&VENT XB=505,508,126,129,0,0,SURF_ID='GROUND VEG1' /
&VENT XB=505,508,129,132,0,0,SURF_ID='GROUND VEG1' /
&VENT XB=505,508,132,135,0,0,SURF_ID='GROUND VEG1' /