&HEAD CHID='Heil_Pretreatment'
      TITLE='Heil_Pretreatment_1000x400' /

-- Atmos inflow, This is 1000x400 mirror on sides and on top. dz is changed to a finer resolution. This has last been edited on 4/11 to include some slices for fire behavior output.

-- Specify number of grid cells (IJK) and domain size (XB) in x,y,z directions

&MESH ID='MESH1', IJK=310,25,100, XB=0,620,0,50,0,100 /
&MESH ID='MESH2', IJK=310,25,100, XB=0,620,50,100,0,100 /
&MESH ID='MESH3', IJK=310,25,100, XB=0,620,100,150,0,100 /
&MESH ID='MESH4', IJK=310,25,100, XB=0,620,150,200,0,100 /
&MESH ID='MESH5', IJK=310,25,100, XB=0,620,200,250,0,100 /
&MESH ID='MESH6', IJK=310,25,100, XB=0,620,250,300,0,100 /
&MESH ID='MESH7', IJK=310,25,100, XB=0,620,300,350,0,100 /
&MESH ID='MESH8', IJK=310,25,100, XB=0,620,350,400,0,100 /

&MESH ID='MESH9', IJK=300,20,100, XB=620,920,0,20,0,100 /
&MESH ID='MESH10', IJK=300,20,100, XB=620,920,20,40,0,100 /
&MESH ID='MESH11', IJK=300,20,100, XB=620,920,40,60,0,100 /
&MESH ID='MESH12', IJK=300,20,100, XB=620,920,60,80,0,100 /
&MESH ID='MESH13', IJK=300,20,100, XB=620,920,80,100,0,100 /
&MESH ID='MESH14', IJK=300,20,100, XB=620,920,100,120,0,100 /
&MESH ID='MESH15', IJK=300,20,100, XB=620,920,120,140,0,100 /
&MESH ID='MESH16', IJK=300,20,100, XB=620,920,140,160,0,100 /
&MESH ID='MESH17', IJK=300,20,100, XB=620,920,160,180,0,100 /
&MESH ID='MESH18', IJK=300,20,100, XB=620,920,180,200,0,100 /
&MESH ID='MESH19', IJK=300,20,100, XB=620,920,200,220,0,100 /
&MESH ID='MESH20', IJK=300,20,100, XB=620,920,220,240,0,100 /
&MESH ID='MESH21', IJK=300,20,100, XB=620,920,240,260,0,100 /
&MESH ID='MESH22', IJK=300,20,100, XB=620,920,260,280,0,100 /
&MESH ID='MESH23', IJK=300,20,100, XB=620,920,280,300,0,100 /
&MESH ID='MESH24', IJK=300,20,100, XB=620,920,300,320,0,100 /
&MESH ID='MESH25', IJK=300,20,100, XB=620,920,320,340,0,100 /
&MESH ID='MESH26', IJK=300,20,100, XB=620,920,340,360,0,100 /
&MESH ID='MESH27', IJK=300,20,100, XB=620,920,360,380,0,100 /
&MESH ID='MESH28', IJK=300,20,100, XB=620,920,380,400,0,100 /
&MESH ID='MESH29', IJK=40,200,100, XB=920,1000,0,400,0,100 /



&TRNZ IDERIV=1,CC=0.,PC=0.5,MESH_NUMBER=1 /
&TRNZ IDERIV=1,CC=0.,PC=0.5,MESH_NUMBER=2 /
&TRNZ IDERIV=1,CC=0.,PC=0.5,MESH_NUMBER=3 /
&TRNZ IDERIV=1,CC=0.,PC=0.5,MESH_NUMBER=4 /
&TRNZ IDERIV=1,CC=0.,PC=0.5,MESH_NUMBER=5 /
&TRNZ IDERIV=1,CC=0.,PC=0.5,MESH_NUMBER=6 /
&TRNZ IDERIV=1,CC=0.,PC=0.5,MESH_NUMBER=7 /
&TRNZ IDERIV=1,CC=0.,PC=0.5,MESH_NUMBER=8 /
&TRNZ IDERIV=1,CC=0.,PC=0.5,MESH_NUMBER=9 /
&TRNZ IDERIV=1,CC=0.,PC=0.5,MESH_NUMBER=10 /
&TRNZ IDERIV=1,CC=0.,PC=0.5,MESH_NUMBER=11 /
&TRNZ IDERIV=1,CC=0.,PC=0.5,MESH_NUMBER=12 /
&TRNZ IDERIV=1,CC=0.,PC=0.5,MESH_NUMBER=13 /
&TRNZ IDERIV=1,CC=0.,PC=0.5,MESH_NUMBER=14 /
&TRNZ IDERIV=1,CC=0.,PC=0.5,MESH_NUMBER=15 /
&TRNZ IDERIV=1,CC=0.,PC=0.5,MESH_NUMBER=16 /
&TRNZ IDERIV=1,CC=0.,PC=0.5,MESH_NUMBER=17 /
&TRNZ IDERIV=1,CC=0.,PC=0.5,MESH_NUMBER=18 /
&TRNZ IDERIV=1,CC=0.,PC=0.5,MESH_NUMBER=19 /
&TRNZ IDERIV=1,CC=0.,PC=0.5,MESH_NUMBER=20 /
&TRNZ IDERIV=1,CC=0.,PC=0.5,MESH_NUMBER=21 /
&TRNZ IDERIV=1,CC=0.,PC=0.5,MESH_NUMBER=22 /
&TRNZ IDERIV=1,CC=0.,PC=0.5,MESH_NUMBER=23 /
&TRNZ IDERIV=1,CC=0.,PC=0.5,MESH_NUMBER=24 /
&TRNZ IDERIV=1,CC=0.,PC=0.5,MESH_NUMBER=25 /
&TRNZ IDERIV=1,CC=0.,PC=0.5,MESH_NUMBER=26 /
&TRNZ IDERIV=1,CC=0.,PC=0.5,MESH_NUMBER=27 /
&TRNZ IDERIV=1,CC=0.,PC=0.5,MESH_NUMBER=28 /
&TRNZ IDERIV=1,CC=0.,PC=0.5,MESH_NUMBER=29 /

&TRNZ IDERIV=2,CC=0.,PC=0.0,MESH_NUMBER=1 /
&TRNZ IDERIV=2,CC=0.,PC=0.0,MESH_NUMBER=2 /
&TRNZ IDERIV=2,CC=0.,PC=0.0,MESH_NUMBER=3 /
&TRNZ IDERIV=2,CC=0.,PC=0.0,MESH_NUMBER=4 /
&TRNZ IDERIV=2,CC=0.,PC=0.0,MESH_NUMBER=5 /
&TRNZ IDERIV=2,CC=0.,PC=0.0,MESH_NUMBER=6 /
&TRNZ IDERIV=2,CC=0.,PC=0.0,MESH_NUMBER=7 /
&TRNZ IDERIV=2,CC=0.,PC=0.0,MESH_NUMBER=8 /
&TRNZ IDERIV=2,CC=0.,PC=0.0,MESH_NUMBER=9 /
&TRNZ IDERIV=2,CC=0.,PC=0.0,MESH_NUMBER=10 /
&TRNZ IDERIV=2,CC=0.,PC=0.0,MESH_NUMBER=11 /
&TRNZ IDERIV=2,CC=0.,PC=0.0,MESH_NUMBER=12 /
&TRNZ IDERIV=2,CC=0.,PC=0.0,MESH_NUMBER=13 /
&TRNZ IDERIV=2,CC=0.,PC=0.0,MESH_NUMBER=14 /
&TRNZ IDERIV=2,CC=0.,PC=0.0,MESH_NUMBER=15 /
&TRNZ IDERIV=2,CC=0.,PC=0.0,MESH_NUMBER=16 /
&TRNZ IDERIV=2,CC=0.,PC=0.0,MESH_NUMBER=17 /
&TRNZ IDERIV=2,CC=0.,PC=0.0,MESH_NUMBER=18 /
&TRNZ IDERIV=2,CC=0.,PC=0.0,MESH_NUMBER=19 /
&TRNZ IDERIV=2,CC=0.,PC=0.0,MESH_NUMBER=20 /
&TRNZ IDERIV=2,CC=0.,PC=0.0,MESH_NUMBER=21 /
&TRNZ IDERIV=2,CC=0.,PC=0.0,MESH_NUMBER=22 /
&TRNZ IDERIV=2,CC=0.,PC=0.0,MESH_NUMBER=23 /
&TRNZ IDERIV=2,CC=0.,PC=0.0,MESH_NUMBER=24 /
&TRNZ IDERIV=2,CC=0.,PC=0.0,MESH_NUMBER=25 /
&TRNZ IDERIV=2,CC=0.,PC=0.0,MESH_NUMBER=26 /
&TRNZ IDERIV=2,CC=0.,PC=0.0,MESH_NUMBER=27 /
&TRNZ IDERIV=2,CC=0.,PC=0.0,MESH_NUMBER=28 /
&TRNZ IDERIV=2,CC=0.,PC=0.0,MESH_NUMBER=29 /

- Account for water vapor from drying vegetation
&SPEC ID='WATER VAPOR' /

&TIME TWFIN=2500. /

&MISC RADIATION=.TRUE.,BAROCLINIC=.TRUE.,TERRAIN_CASE=.FALSE.,WIND_ONLY=.FALSE. /

- Specify parameters for combustion of fuel gases from pyrolysis of the solid fuel(s)
&REAC ID='WOOD'
      FYI='Ritchie, et al., 5th IAFSS, C_3.4 H_6.2 O_2.5'
      SOOT_YIELD = 0.02
      O          = 2.5
      C          = 3.4
      H          = 6.2
      HEAT_OF_COMBUSTION = 17700 /
 
- Ground fuel elements Based on Cathpole 1998 case PPMC78
&SURF ID = 'GROUND VEG1'
      VEGETATION = .TRUE.
      VEGETATION_INITIAL_TEMP = 20
      VEGETATION_CDRAG    = 0.05
      VEGETATION_MOISTURE = 0.05
      VEGETATION_SVRATIO  = 5710
      VEGETATION_CHAR_FRACTION  = 0.265
      VEGETATION_LOAD     = 0.99
      VEGETATION_HEIGHT   = 0.06
      VEGETATION_ELEMENT_DENSITY= 510
      EMISSIVITY = 0.99 
      VEGETATION_ARRHENIUS_DEGRAD=.FALSE.
      FIRELINE_MLR_MAX = 0.35 
      RGB        = 122,117,48 /
&VENT XB=1,680,0,400,0,0,SURF_ID='GROUND VEG1' /
&VENT XB=683,996,0,100,0,0,SURF_ID='GROUND VEG1' /
&VENT XB=683,996,300,400,0,0,SURF_ID='GROUND VEG1' /
&VENT XB=683,700,100,300,0,0,SURF_ID='GROUND VEG1' /
&VENT XB=900,996,100,300,0,0,SURF_ID='GROUND VEG1' /

&SURF ID = 'GROUND VEG2'
      VEGETATION = .TRUE.
      VEGETATION_INITIAL_TEMP = 20
      VEGETATION_CDRAG    = 0.05
      VEGETATION_MOISTURE = 0.05
      VEGETATION_SVRATIO  = 5710
      VEGETATION_CHAR_FRACTION  = 0.265
      VEGETATION_LOAD     = 0.99
      VEGETATION_HEIGHT   = 0.06
      VEGETATION_ELEMENT_DENSITY= 510
      EMISSIVITY = 0.99 
      VEGETATION_ARRHENIUS_DEGRAD=.FALSE.
      FIRELINE_MLR_MAX = 0.35 
      RGB        = 79,120,48 /
&VENT XB=700,900,100,300,0,0,SURF_ID='GROUND VEG2' /


- Ponderosa pine elements
&PART ID='PIPO',TREE=.TRUE.,QUANTITIES='VEG_TEMPERATURE',
      VEG_INITIAL_TEMPERATURE=20.,
      VEG_SV=4000.,VEG_MOISTURE=1.0,VEG_CHAR_FRACTION=0.25,
      VEG_DRAG_COEFFICIENT=0.125,VEG_DENSITY=520.,VEG_BULK_DENSITY=1.2,
      VEG_BURNING_RATE_MAX=0.4,VEG_DEHYDRATION_RATE_MAX=0.4,
      VEG_REMOVE_CHARRED=.TRUE. /

- Rocky Mtn. juniper elements
&PART ID='JUSC',TREE=.TRUE.,QUANTITIES='VEG_TEMPERATURE',
      VEG_INITIAL_TEMPERATURE=20.,
      VEG_SV=4000.,VEG_MOISTURE=1.0,VEG_CHAR_FRACTION=0.25,
      VEG_DRAG_COEFFICIENT=0.125,VEG_DENSITY=520.,VEG_BULK_DENSITY=1.2,
      VEG_BURNING_RATE_MAX=0.4,VEG_DEHYDRATION_RATE_MAX=0.4,
      VEG_REMOVE_CHARRED=.TRUE. /

- Douglas-fir elements
&PART ID='PSME',TREE=.TRUE.,QUANTITIES='VEG_TEMPERATURE',
      VEG_INITIAL_TEMPERATURE=20.,
      VEG_SV=4000.,VEG_MOISTURE=1.0,VEG_CHAR_FRACTION=0.25,
      VEG_DRAG_COEFFICIENT=0.125,VEG_DENSITY=520.,VEG_BULK_DENSITY=1.2,
      VEG_BURNING_RATE_MAX=0.4,VEG_DEHYDRATION_RATE_MAX=0.4,
      VEG_REMOVE_CHARRED=.TRUE. /
 
- Tree stem elements
&PART ID='TRUNK1',TREE=.TRUE.,QUANTITIES='VEG_TEMPERATURE',
      VEG_SV=3.,VEG_MOISTURE=1.0,
      VEG_DRAG_COEFFICIENT=0.125,VEG_DENSITY=520.,
      VEG_BULK_DENSITY=520 /
-Tree list
&TREE XYZ=700,299.8,0,PART_ID="PIPO",FUEL_GEOM="CONE",CROWN_WIDTH=2.86512 ,CROWN_BASE_HEIGHT=2.92,TREE_HEIGHT=7.57,OUTPUT_TREE=.TRUE.,LABEL="TREE1"/
&TREE XYZ=700,299.8,0,PART_ID="PIPO",FUEL_GEOM="CONE",CROWN_WIDTH=2.86512 ,CROWN_BASE_HEIGHT=2.92,TREE_HEIGHT=7.57,OUTPUT_TREE=.TRUE.,LABEL="TREE2"/
&TREE XYZ=700,291.2,0,PART_ID="PIPO",FUEL_GEOM="CONE",CROWN_WIDTH=4.02336 ,CROWN_BASE_HEIGHT=2.65,TREE_HEIGHT=6.68,OUTPUT_TREE=.TRUE.,LABEL="TREE3"/
&TREE XYZ=700,291.2,0,PART_ID="PIPO",FUEL_GEOM="CONE",CROWN_WIDTH=4.02336 ,CROWN_BASE_HEIGHT=2.65,TREE_HEIGHT=6.68,OUTPUT_TREE=.TRUE.,LABEL="TREE4"/
&TREE XYZ=700,223.1,0,PART_ID="PIPO",FUEL_GEOM="CONE",CROWN_WIDTH=2.62128 ,CROWN_BASE_HEIGHT=4.12,TREE_HEIGHT=7.82,OUTPUT_TREE=.TRUE.,LABEL="TREE5"/
&TREE XYZ=700,223.1,0,PART_ID="PIPO",FUEL_GEOM="CONE",CROWN_WIDTH=2.62128 ,CROWN_BASE_HEIGHT=4.12,TREE_HEIGHT=7.82,OUTPUT_TREE=.TRUE.,LABEL="TREE6"/
&TREE XYZ=700,131,0,PART_ID="PIPO",FUEL_GEOM="CONE",CROWN_WIDTH=5.36448 ,CROWN_BASE_HEIGHT=3.17,TREE_HEIGHT=8.63,OUTPUT_TREE=.TRUE.,LABEL="TREE7"/
&TREE XYZ=700,131,0,PART_ID="PIPO",FUEL_GEOM="CONE",CROWN_WIDTH=5.36448 ,CROWN_BASE_HEIGHT=3.17,TREE_HEIGHT=8.63,OUTPUT_TREE=.TRUE.,LABEL="TREE8"/
&TREE XYZ=700,125,0,PART_ID="PIPO",FUEL_GEOM="CONE",CROWN_WIDTH=4.63296 ,CROWN_BASE_HEIGHT=3.13,TREE_HEIGHT=7.19,OUTPUT_TREE=.TRUE.,LABEL="TREE9"/
&TREE XYZ=700,125,0,PART_ID="PIPO",FUEL_GEOM="CONE",CROWN_WIDTH=4.63296 ,CROWN_BASE_HEIGHT=3.13,TREE_HEIGHT=7.19,OUTPUT_TREE=.TRUE.,LABEL="TREE10"/
&TREE XYZ=700,117,0,PART_ID="PIPO",FUEL_GEOM="CONE",CROWN_WIDTH=5.309590648 ,CROWN_BASE_HEIGHT=4.621932524,TREE_HEIGHT=10.22047119,OUTPUT_TREE=.TRUE.,LABEL="TREE11"/
&TREE XYZ=700,117,0,PART_ID="PIPO",FUEL_GEOM="CONE",CROWN_WIDTH=5.309590648 ,CROWN_BASE_HEIGHT=4.621932524,TREE_HEIGHT=10.22047119,OUTPUT_TREE=.TRUE.,LABEL="TREE12"/
&TREE XYZ=700,105,0,PART_ID="PIPO",FUEL_GEOM="CONE",CROWN_WIDTH=3.16992 ,CROWN_BASE_HEIGHT=3.43,TREE_HEIGHT=6.6,OUTPUT_TREE=.TRUE.,LABEL="TREE13"/
&TREE XYZ=700,105,0,PART_ID="PIPO",FUEL_GEOM="CONE",CROWN_WIDTH=3.16992 ,CROWN_BASE_HEIGHT=3.43,TREE_HEIGHT=6.6,OUTPUT_TREE=.TRUE.,LABEL="TREE14"/
&TREE XYZ=700.1,255.3,0,PART_ID="PIPO",FUEL_GEOM="CONE",CROWN_WIDTH=3.83185624 ,CROWN_BASE_HEIGHT=3.79802612,TREE_HEIGHT=8.16508744,OUTPUT_TREE=.TRUE.,LABEL="TREE15"/
&TREE XYZ=700.5,280,0,PART_ID="PIPO",FUEL_GEOM="CONE",CROWN_WIDTH=3.59664 ,CROWN_BASE_HEIGHT=2.4,TREE_HEIGHT=7.17,OUTPUT_TREE=.TRUE.,LABEL="TREE16"/
&TREE XYZ=700.8,247.3,0,PART_ID="PIPO",FUEL_GEOM="CONE",CROWN_WIDTH=5.334 ,CROWN_BASE_HEIGHT=4.83,TREE_HEIGHT=8.97,OUTPUT_TREE=.TRUE.,LABEL="TREE17"/
&TREE XYZ=700.8,246.2,0,PART_ID="PIPO",FUEL_GEOM="CONE",CROWN_WIDTH=3.44424 ,CROWN_BASE_HEIGHT=5.11,TREE_HEIGHT=7.58,OUTPUT_TREE=.TRUE.,LABEL="TREE18"/
&TREE XYZ=700.8,230,0,PART_ID="PIPO",FUEL_GEOM="CONE",CROWN_WIDTH=2.5908 ,CROWN_BASE_HEIGHT=3.22,TREE_HEIGHT=7.96,OUTPUT_TREE=.TRUE.,LABEL="TREE19"/
&TREE XYZ=701,136,0,PART_ID="PIPO",FUEL_GEOM="CONE",CROWN_WIDTH=4.99872 ,CROWN_BASE_HEIGHT=4.21,TREE_HEIGHT=8.54,OUTPUT_TREE=.TRUE.,LABEL="TREE20"/
&TREE XYZ=701,118,0,PART_ID="PIPO",FUEL_GEOM="CONE",CROWN_WIDTH=2.518314544 ,CROWN_BASE_HEIGHT=3.065664872,TREE_HEIGHT=6.338079664,OUTPUT_TREE=.TRUE.,LABEL="TREE21"/
&TREE XYZ=701.1,220.6,0,PART_ID="PIPO",FUEL_GEOM="CONE",CROWN_WIDTH=2.16408 ,CROWN_BASE_HEIGHT=3.84,TREE_HEIGHT=7.9,OUTPUT_TREE=.TRUE.,LABEL="TREE22"/
&TREE XYZ=701.3,239.6,0,PART_ID="PIPO",FUEL_GEOM="CONE",CROWN_WIDTH=5.45592 ,CROWN_BASE_HEIGHT=3.54,TREE_HEIGHT=8.93,OUTPUT_TREE=.TRUE.,LABEL="TREE23"/
&TREE XYZ=701.6,243.8,0,PART_ID="PIPO",FUEL_GEOM="CONE",CROWN_WIDTH=4.14528 ,CROWN_BASE_HEIGHT=5.42,TREE_HEIGHT=10.14,OUTPUT_TREE=.TRUE.,LABEL="TREE24"/
&TREE XYZ=701.7,264.6,0,PART_ID="PIPO",FUEL_GEOM="CONE",CROWN_WIDTH=4.023414404 ,CROWN_BASE_HEIGHT=3.904828802,TREE_HEIGHT=8.431526074,OUTPUT_TREE=.TRUE.,LABEL="TREE25"/
&TREE XYZ=701.9,276.8,0,PART_ID="PIPO",FUEL_GEOM="CONE",CROWN_WIDTH=3.47472 ,CROWN_BASE_HEIGHT=2.58,TREE_HEIGHT=6.52,OUTPUT_TREE=.TRUE.,LABEL="TREE26"/
&TREE XYZ=702,254.4,0,PART_ID="PIPO",FUEL_GEOM="CONE",CROWN_WIDTH=2.901430872 ,CROWN_BASE_HEIGHT=3.279270236,TREE_HEIGHT=6.870956932,OUTPUT_TREE=.TRUE.,LABEL="TREE27"/
&TREE XYZ=702,107,0,PART_ID="PIPO",FUEL_GEOM="CONE",CROWN_WIDTH=4.32816 ,CROWN_BASE_HEIGHT=3.15,TREE_HEIGHT=9.09,OUTPUT_TREE=.TRUE.,LABEL="TREE28"/
&TREE XYZ=702.4,177.8,0,PART_ID="PIPO",FUEL_GEOM="CONE",CROWN_WIDTH=5.12064 ,CROWN_BASE_HEIGHT=2.46,TREE_HEIGHT=8.78,OUTPUT_TREE=.TRUE.,LABEL="TREE29"/
&TREE XYZ=702.6,274.1,0,PART_ID="PIPO",FUEL_GEOM="CONE",CROWN_WIDTH=4.96824 ,CROWN_BASE_HEIGHT=2.78,TREE_HEIGHT=7.54,OUTPUT_TREE=.TRUE.,LABEL="TREE30"/
&TREE XYZ=702.7,226,0,PART_ID="PIPO",FUEL_GEOM="CONE",CROWN_WIDTH=4.20624 ,CROWN_BASE_HEIGHT=4.7,TREE_HEIGHT=9.76,OUTPUT_TREE=.TRUE.,LABEL="TREE31"/
&TREE XYZ=702.9,153.5,0,PART_ID="PIPO",FUEL_GEOM="CONE",CROWN_WIDTH=3.01752 ,CROWN_BASE_HEIGHT=3.32,TREE_HEIGHT=10.01,OUTPUT_TREE=.TRUE.,LABEL="TREE32"/
&TREE XYZ=703,148,0,PART_ID="PIPO",FUEL_GEOM="CONE",CROWN_WIDTH=4.60248 ,CROWN_BASE_HEIGHT=2.35,TREE_HEIGHT=7.6,OUTPUT_TREE=.TRUE.,LABEL="TREE33"/
&TREE XYZ=703,121,0,PART_ID="PIPO",FUEL_GEOM="CONE",CROWN_WIDTH=5.15112 ,CROWN_BASE_HEIGHT=4.8,TREE_HEIGHT=11.37,OUTPUT_TREE=.TRUE.,LABEL="TREE34"/
&TREE XYZ=703,116,0,PART_ID="PIPO",FUEL_GEOM="CONE",CROWN_WIDTH=3.339278104 ,CROWN_BASE_HEIGHT=3.523390652,TREE_HEIGHT=7.479959524,OUTPUT_TREE=.TRUE.,LABEL="TREE35"/
&TREE XYZ=703.3,291.6,0,PART_ID="PIPO",FUEL_GEOM="CONE",CROWN_WIDTH=4.81584 ,CROWN_BASE_HEIGHT=3.36,TREE_HEIGHT=7.53,OUTPUT_TREE=.TRUE.,LABEL="TREE36"/
&TREE XYZ=703.5,271.7,0,PART_ID="PIPO",FUEL_GEOM="CONE",CROWN_WIDTH=3.93192 ,CROWN_BASE_HEIGHT=2.65,TREE_HEIGHT=7.45,OUTPUT_TREE=.TRUE.,LABEL="TREE37"/
&TREE XYZ=703.5,231.4,0,PART_ID="PIPO",FUEL_GEOM="CONE",CROWN_WIDTH=4.60248 ,CROWN_BASE_HEIGHT=4.21,TREE_HEIGHT=11.23,OUTPUT_TREE=.TRUE.,LABEL="TREE38"/
&TREE XYZ=703.6,235,0,PART_ID="PIPO",FUEL_GEOM="CONE",CROWN_WIDTH=2.56032 ,CROWN_BASE_HEIGHT=4.11,TREE_HEIGHT=7.31,OUTPUT_TREE=.TRUE.,LABEL="TREE39"/
&TREE XYZ=703.8,241.4,0,PART_ID="PIPO",FUEL_GEOM="CONE",CROWN_WIDTH=3.092989036 ,CROWN_BASE_HEIGHT=3.386072918,TREE_HEIGHT=7.137395566,OUTPUT_TREE=.TRUE.,LABEL="TREE40"/
&TREE XYZ=703.8,216,0,PART_ID="PIPO",FUEL_GEOM="CONE",CROWN_WIDTH=3.07848 ,CROWN_BASE_HEIGHT=5.53,TREE_HEIGHT=8.23,OUTPUT_TREE=.TRUE.,LABEL="TREE41"/
&TREE XYZ=703.9,300,0,PART_ID="PIPO",FUEL_GEOM="CONE",CROWN_WIDTH=3.74904 ,CROWN_BASE_HEIGHT=2.74,TREE_HEIGHT=8.05,OUTPUT_TREE=.TRUE.,LABEL="TREE42"/
&TREE XYZ=703.9,215.8,0,PART_ID="PIPO",FUEL_GEOM="CONE",CROWN_WIDTH=4.35864 ,CROWN_BASE_HEIGHT=4.54,TREE_HEIGHT=9.18,OUTPUT_TREE=.TRUE.,LABEL="TREE43"/
&TREE XYZ=703.9,176.1,0,PART_ID="PIPO",FUEL_GEOM="CONE",CROWN_WIDTH=4.23672 ,CROWN_BASE_HEIGHT=3.29,TREE_HEIGHT=8.99,OUTPUT_TREE=.TRUE.,LABEL="TREE44"/
&TREE XYZ=704,138,0,PART_ID="PIPO",FUEL_GEOM="CONE",CROWN_WIDTH=7.10184 ,CROWN_BASE_HEIGHT=7.09,TREE_HEIGHT=10.32,OUTPUT_TREE=.TRUE.,LABEL="TREE45"/
&TREE XYZ=704,112,0,PART_ID="PIPO",FUEL_GEOM="CONE",CROWN_WIDTH=3.530836268 ,CROWN_BASE_HEIGHT=3.630193334,TREE_HEIGHT=7.746398158,OUTPUT_TREE=.TRUE.,LABEL="TREE46"/
&TREE XYZ=704.3,269.9,0,PART_ID="PIPO",FUEL_GEOM="CONE",CROWN_WIDTH=4.20624 ,CROWN_BASE_HEIGHT=2.67,TREE_HEIGHT=7.11,OUTPUT_TREE=.TRUE.,LABEL="TREE47"/
&TREE XYZ=704.3,253.7,0,PART_ID="PIPO",FUEL_GEOM="CONE",CROWN_WIDTH=3.612932624 ,CROWN_BASE_HEIGHT=3.675965912,TREE_HEIGHT=7.860586144,OUTPUT_TREE=.TRUE.,LABEL="TREE48"/
&TREE XYZ=704.5,263.2,0,PART_ID="PIPO",FUEL_GEOM="CONE",CROWN_WIDTH=3.311912652 ,CROWN_BASE_HEIGHT=3.508133126,TREE_HEIGHT=7.441896862,OUTPUT_TREE=.TRUE.,LABEL="TREE49"/
&TREE XYZ=704.5,209.8,0,PART_ID="PIPO",FUEL_GEOM="CONE",CROWN_WIDTH=3.229816296 ,CROWN_BASE_HEIGHT=3.462360548,TREE_HEIGHT=7.327708876,OUTPUT_TREE=.TRUE.,LABEL="TREE50"/
&TREE XYZ=704.6,257.4,0,PART_ID="PIPO",FUEL_GEOM="CONE",CROWN_WIDTH=3.69502898 ,CROWN_BASE_HEIGHT=3.72173849,TREE_HEIGHT=7.97477413,OUTPUT_TREE=.TRUE.,LABEL="TREE51"/
&TREE XYZ=704.9,244,0,PART_ID="PIPO",FUEL_GEOM="CONE",CROWN_WIDTH=2.4384 ,CROWN_BASE_HEIGHT=4.45,TREE_HEIGHT=9.01,OUTPUT_TREE=.TRUE.,LABEL="TREE52"/
&TREE XYZ=705,126,0,PART_ID="PIPO",FUEL_GEOM="CONE",CROWN_WIDTH=3.69502898 ,CROWN_BASE_HEIGHT=3.72173849,TREE_HEIGHT=7.97477413,OUTPUT_TREE=.TRUE.,LABEL="TREE53"/
&TREE XYZ=705,118,0,PART_ID="PIPO",FUEL_GEOM="CONE",CROWN_WIDTH=4.488627088 ,CROWN_BASE_HEIGHT=4.164206744,TREE_HEIGHT=9.078591328,OUTPUT_TREE=.TRUE.,LABEL="TREE54"/
&TREE XYZ=705.3,267,0,PART_ID="PIPO",FUEL_GEOM="CONE",CROWN_WIDTH=3.26136 ,CROWN_BASE_HEIGHT=2.45,TREE_HEIGHT=14.9,OUTPUT_TREE=.TRUE.,LABEL="TREE55"/
&TREE XYZ=705.6,192,0,PART_ID="PIPO",FUEL_GEOM="CONE",CROWN_WIDTH=3.667663528 ,CROWN_BASE_HEIGHT=3.706480964,TREE_HEIGHT=7.936711468,OUTPUT_TREE=.TRUE.,LABEL="TREE56"/
&TREE XYZ=705.6,155.7,0,PART_ID="PIPO",FUEL_GEOM="CONE",CROWN_WIDTH=4.75488 ,CROWN_BASE_HEIGHT=4.61,TREE_HEIGHT=10.2,OUTPUT_TREE=.TRUE.,LABEL="TREE57"/
&TREE XYZ=705.7,182.6,0,PART_ID="PIPO",FUEL_GEOM="CONE",CROWN_WIDTH=3.93192 ,CROWN_BASE_HEIGHT=1.03,TREE_HEIGHT=6.71,OUTPUT_TREE=.TRUE.,LABEL="TREE58"/
&TREE XYZ=705.8,235.7,0,PART_ID="PIPO",FUEL_GEOM="CONE",CROWN_WIDTH=4.543357992 ,CROWN_BASE_HEIGHT=4.194721796,TREE_HEIGHT=9.154716652,OUTPUT_TREE=.TRUE.,LABEL="TREE59"/
&TREE XYZ=705.9,240.2,0,PART_ID="PIPO",FUEL_GEOM="CONE",CROWN_WIDTH=3.777125336 ,CROWN_BASE_HEIGHT=3.767511068,TREE_HEIGHT=8.088962116,OUTPUT_TREE=.TRUE.,LABEL="TREE60"/
&TREE XYZ=705.9,198.9,0,PART_ID="PIPO",FUEL_GEOM="CONE",CROWN_WIDTH=4.570723444 ,CROWN_BASE_HEIGHT=4.209979322,TREE_HEIGHT=9.192779314,OUTPUT_TREE=.TRUE.,LABEL="TREE61"/
&TREE XYZ=706,109,0,PART_ID="PIPO",FUEL_GEOM="CONE",CROWN_WIDTH=3.065623584 ,CROWN_BASE_HEIGHT=3.370815392,TREE_HEIGHT=7.099332904,OUTPUT_TREE=.TRUE.,LABEL="TREE62"/
&TREE XYZ=706.2,189.2,0,PART_ID="PIPO",FUEL_GEOM="CONE",CROWN_WIDTH=3.038258132 ,CROWN_BASE_HEIGHT=3.355557866,TREE_HEIGHT=7.061270242,OUTPUT_TREE=.TRUE.,LABEL="TREE63"/
&TREE XYZ=706.4,273.3,0,PART_ID="PIPO",FUEL_GEOM="CONE",CROWN_WIDTH=3.90144 ,CROWN_BASE_HEIGHT=2.27,TREE_HEIGHT=5.66,OUTPUT_TREE=.TRUE.,LABEL="TREE64"/
&TREE XYZ=706.4,250.7,0,PART_ID="PIPO",FUEL_GEOM="CONE",CROWN_WIDTH=4.324434376 ,CROWN_BASE_HEIGHT=4.072661588,TREE_HEIGHT=8.850215356,OUTPUT_TREE=.TRUE.,LABEL="TREE65"/
&TREE XYZ=706.8,210.3,0,PART_ID="PIPO",FUEL_GEOM="CONE",CROWN_WIDTH=5.61061062 ,CROWN_BASE_HEIGHT=4.78976531,TREE_HEIGHT=10.63916047,OUTPUT_TREE=.TRUE.,LABEL="TREE66"/
&TREE XYZ=706.9,227.1,0,PART_ID="PIPO",FUEL_GEOM="CONE",CROWN_WIDTH=4.63296 ,CROWN_BASE_HEIGHT=4.34,TREE_HEIGHT=7.25,OUTPUT_TREE=.TRUE.,LABEL="TREE67"/
&TREE XYZ=707,159.2,0,PART_ID="PIPO",FUEL_GEOM="CONE",CROWN_WIDTH=5.57784 ,CROWN_BASE_HEIGHT=6.43,TREE_HEIGHT=12.8,OUTPUT_TREE=.TRUE.,LABEL="TREE68"/
&TREE XYZ=707,144,0,PART_ID="PIPO",FUEL_GEOM="CONE",CROWN_WIDTH=4.48056 ,CROWN_BASE_HEIGHT=3.61,TREE_HEIGHT=10.22,OUTPUT_TREE=.TRUE.,LABEL="TREE69"/
&TREE XYZ=707.1,264.4,0,PART_ID="PIPO",FUEL_GEOM="CONE",CROWN_WIDTH=2.83464 ,CROWN_BASE_HEIGHT=2.13,TREE_HEIGHT=12.7,OUTPUT_TREE=.TRUE.,LABEL="TREE70"/
&TREE XYZ=707.2,246.5,0,PART_ID="PIPO",FUEL_GEOM="CONE",CROWN_WIDTH=3.71856 ,CROWN_BASE_HEIGHT=5.98,TREE_HEIGHT=10.38,OUTPUT_TREE=.TRUE.,LABEL="TREE71"/
&TREE XYZ=707.6,191.2,0,PART_ID="PIPO",FUEL_GEOM="CONE",CROWN_WIDTH=4.023414404 ,CROWN_BASE_HEIGHT=3.904828802,TREE_HEIGHT=8.431526074,OUTPUT_TREE=.TRUE.,LABEL="TREE72"/
&TREE XYZ=707.7,223,0,PART_ID="PIPO",FUEL_GEOM="CONE",CROWN_WIDTH=4.23672 ,CROWN_BASE_HEIGHT=4.34,TREE_HEIGHT=8.48,OUTPUT_TREE=.TRUE.,LABEL="TREE73"/
&TREE XYZ=707.8,170.3,0,PART_ID="PIPO",FUEL_GEOM="CONE",CROWN_WIDTH=3.71856 ,CROWN_BASE_HEIGHT=3.11,TREE_HEIGHT=10.02,OUTPUT_TREE=.TRUE.,LABEL="TREE74"/
&TREE XYZ=707.9,286.4,0,PART_ID="PIPO",FUEL_GEOM="CONE",CROWN_WIDTH=5.27304 ,CROWN_BASE_HEIGHT=2.53,TREE_HEIGHT=6.17,OUTPUT_TREE=.TRUE.,LABEL="TREE75"/
&TREE XYZ=708,133,0,PART_ID="PIPO",FUEL_GEOM="CONE",CROWN_WIDTH=4.2672 ,CROWN_BASE_HEIGHT=4.71,TREE_HEIGHT=13.55,OUTPUT_TREE=.TRUE.,LABEL="TREE76"/
&TREE XYZ=708,101,0,PART_ID="PIPO",FUEL_GEOM="CONE",CROWN_WIDTH=5.39496 ,CROWN_BASE_HEIGHT=3.59,TREE_HEIGHT=8.3,OUTPUT_TREE=.TRUE.,LABEL="TREE77"/
&TREE XYZ=708.2,269.6,0,PART_ID="PIPO",FUEL_GEOM="CONE",CROWN_WIDTH=3.38328 ,CROWN_BASE_HEIGHT=2.27,TREE_HEIGHT=10.1,OUTPUT_TREE=.TRUE.,LABEL="TREE78"/
&TREE XYZ=708.2,203.5,0,PART_ID="PIPO",FUEL_GEOM="CONE",CROWN_WIDTH=3.941318048 ,CROWN_BASE_HEIGHT=3.859056224,TREE_HEIGHT=8.317338088,OUTPUT_TREE=.TRUE.,LABEL="TREE79"/
&TREE XYZ=708.3,187,0,PART_ID="PIPO",FUEL_GEOM="CONE",CROWN_WIDTH=3.777125336 ,CROWN_BASE_HEIGHT=3.767511068,TREE_HEIGHT=8.088962116,OUTPUT_TREE=.TRUE.,LABEL="TREE80"/
&TREE XYZ=708.7,191.2,0,PART_ID="PIPO",FUEL_GEOM="CONE",CROWN_WIDTH=3.01089268 ,CROWN_BASE_HEIGHT=3.34030034,TREE_HEIGHT=7.02320758,OUTPUT_TREE=.TRUE.,LABEL="TREE81"/
&TREE XYZ=708.7,187,0,PART_ID="PIPO",FUEL_GEOM="CONE",CROWN_WIDTH=2.77368 ,CROWN_BASE_HEIGHT=1.61,TREE_HEIGHT=4.8,OUTPUT_TREE=.TRUE.,LABEL="TREE82"/
&TREE XYZ=709,163.7,0,PART_ID="PIPO",FUEL_GEOM="CONE",CROWN_WIDTH=4.96824 ,CROWN_BASE_HEIGHT=4.38,TREE_HEIGHT=12.35,OUTPUT_TREE=.TRUE.,LABEL="TREE83"/
&TREE XYZ=709,120,0,PART_ID="PIPO",FUEL_GEOM="CONE",CROWN_WIDTH=4.14528 ,CROWN_BASE_HEIGHT=4.93,TREE_HEIGHT=9.55,OUTPUT_TREE=.TRUE.,LABEL="TREE84"/
&TREE XYZ=709,107,0,PART_ID="PIPO",FUEL_GEOM="CONE",CROWN_WIDTH=5.1816 ,CROWN_BASE_HEIGHT=8.56,TREE_HEIGHT=10.59,OUTPUT_TREE=.TRUE.,LABEL="TREE85"/
&TREE XYZ=709.1,296.8,0,PART_ID="PIPO",FUEL_GEOM="CONE",CROWN_WIDTH=3.07848 ,CROWN_BASE_HEIGHT=3.67,TREE_HEIGHT=7.53,OUTPUT_TREE=.TRUE.,LABEL="TREE86"/
&TREE XYZ=709.1,290,0,PART_ID="PIPO",FUEL_GEOM="CONE",CROWN_WIDTH=2.83464 ,CROWN_BASE_HEIGHT=2.94,TREE_HEIGHT=6.45,OUTPUT_TREE=.TRUE.,LABEL="TREE87"/
&TREE XYZ=709.3,259.9,0,PART_ID="PIPO",FUEL_GEOM="CONE",CROWN_WIDTH=3.941318048 ,CROWN_BASE_HEIGHT=3.859056224,TREE_HEIGHT=8.317338088,OUTPUT_TREE=.TRUE.,LABEL="TREE88"/
&TREE XYZ=709.5,261.6,0,PART_ID="PIPO",FUEL_GEOM="CONE",CROWN_WIDTH=3.065623584 ,CROWN_BASE_HEIGHT=3.370815392,TREE_HEIGHT=7.099332904,OUTPUT_TREE=.TRUE.,LABEL="TREE89"/
&TREE XYZ=709.6,247.2,0,PART_ID="PIPO",FUEL_GEOM="CONE",CROWN_WIDTH=3.996048952 ,CROWN_BASE_HEIGHT=3.889571276,TREE_HEIGHT=8.393463412,OUTPUT_TREE=.TRUE.,LABEL="TREE90"/
&TREE XYZ=709.6,231.4,0,PART_ID="PIPO",FUEL_GEOM="CONE",CROWN_WIDTH=4.78536 ,CROWN_BASE_HEIGHT=3.93,TREE_HEIGHT=9.8,OUTPUT_TREE=.TRUE.,LABEL="TREE91"/
&TREE XYZ=709.7,176.9,0,PART_ID="PIPO",FUEL_GEOM="CONE",CROWN_WIDTH=3.29184 ,CROWN_BASE_HEIGHT=2.27,TREE_HEIGHT=7.17,OUTPUT_TREE=.TRUE.,LABEL="TREE92"/
&TREE XYZ=710,135,0,PART_ID="PIPO",FUEL_GEOM="CONE",CROWN_WIDTH=4.93776 ,CROWN_BASE_HEIGHT=5.32,TREE_HEIGHT=10.19,OUTPUT_TREE=.TRUE.,LABEL="TREE93"/
&TREE XYZ=710,125,0,PART_ID="PIPO",FUEL_GEOM="CONE",CROWN_WIDTH=5.4864 ,CROWN_BASE_HEIGHT=3.72,TREE_HEIGHT=11.45,OUTPUT_TREE=.TRUE.,LABEL="TREE94"/
&TREE XYZ=710,110,0,PART_ID="PIPO",FUEL_GEOM="CONE",CROWN_WIDTH=2.956161776 ,CROWN_BASE_HEIGHT=3.309785288,TREE_HEIGHT=6.947082256,OUTPUT_TREE=.TRUE.,LABEL="TREE95"/
&TREE XYZ=710.3,293,0,PART_ID="PIPO",FUEL_GEOM="CONE",CROWN_WIDTH=4.05384 ,CROWN_BASE_HEIGHT=2.79,TREE_HEIGHT=6.66,OUTPUT_TREE=.TRUE.,LABEL="TREE96"/
&TREE XYZ=710.5,235,0,PART_ID="PIPO",FUEL_GEOM="CONE",CROWN_WIDTH=3.44424 ,CROWN_BASE_HEIGHT=3.7,TREE_HEIGHT=10.27,OUTPUT_TREE=.TRUE.,LABEL="TREE97"/
&TREE XYZ=711,128,0,PART_ID="PIPO",FUEL_GEOM="CONE",CROWN_WIDTH=6.4008 ,CROWN_BASE_HEIGHT=5.78,TREE_HEIGHT=13.35,OUTPUT_TREE=.TRUE.,LABEL="TREE98"/
&TREE XYZ=711,100,0,PART_ID="PIPO",FUEL_GEOM="CONE",CROWN_WIDTH=3.23088 ,CROWN_BASE_HEIGHT=3.86,TREE_HEIGHT=9.3,OUTPUT_TREE=.TRUE.,LABEL="TREE99"/
&TREE XYZ=711.2,277.3,0,PART_ID="PIPO",FUEL_GEOM="CONE",CROWN_WIDTH=5.39496 ,CROWN_BASE_HEIGHT=2.9,TREE_HEIGHT=10.36,OUTPUT_TREE=.TRUE.,LABEL="TREE100"/
&TREE XYZ=711.2,267,0,PART_ID="PIPO",FUEL_GEOM="CONE",CROWN_WIDTH=4.84632 ,CROWN_BASE_HEIGHT=2.09,TREE_HEIGHT=13.9,OUTPUT_TREE=.TRUE.,LABEL="TREE101"/
&TREE XYZ=711.2,190.8,0,PART_ID="PIPO",FUEL_GEOM="CONE",CROWN_WIDTH=4.324434376 ,CROWN_BASE_HEIGHT=4.072661588,TREE_HEIGHT=8.850215356,OUTPUT_TREE=.TRUE.,LABEL="TREE102"/
&TREE XYZ=711.4,227.1,0,PART_ID="PIPO",FUEL_GEOM="CONE",CROWN_WIDTH=4.75488 ,CROWN_BASE_HEIGHT=3.86,TREE_HEIGHT=8.34,OUTPUT_TREE=.TRUE.,LABEL="TREE103"/
&TREE XYZ=711.7,244.1,0,PART_ID="PIPO",FUEL_GEOM="CONE",CROWN_WIDTH=3.202450844 ,CROWN_BASE_HEIGHT=3.447103022,TREE_HEIGHT=7.289646214,OUTPUT_TREE=.TRUE.,LABEL="TREE104"/
&TREE XYZ=711.8,281.8,0,PART_ID="PIPO",FUEL_GEOM="CONE",CROWN_WIDTH=1.76784 ,CROWN_BASE_HEIGHT=2.17,TREE_HEIGHT=6.14,OUTPUT_TREE=.TRUE.,LABEL="TREE105"/
&TREE XYZ=711.8,210.8,0,PART_ID="PIPO",FUEL_GEOM="CONE",CROWN_WIDTH=4.078145308 ,CROWN_BASE_HEIGHT=3.935343854,TREE_HEIGHT=8.507651398,OUTPUT_TREE=.TRUE.,LABEL="TREE106"/
&TREE XYZ=712,300,0,PART_ID="PIPO",FUEL_GEOM="CONE",CROWN_WIDTH=4.08432 ,CROWN_BASE_HEIGHT=2.97,TREE_HEIGHT=6.09,OUTPUT_TREE=.TRUE.,LABEL="TREE107"/
&TREE XYZ=712,142,0,PART_ID="PIPO",FUEL_GEOM="CONE",CROWN_WIDTH=5.6388 ,CROWN_BASE_HEIGHT=4.48,TREE_HEIGHT=8.48,OUTPUT_TREE=.TRUE.,LABEL="TREE108"/
&TREE XYZ=712,126,0,PART_ID="PIPO",FUEL_GEOM="CONE",CROWN_WIDTH=3.71856 ,CROWN_BASE_HEIGHT=4.81,TREE_HEIGHT=9.07,OUTPUT_TREE=.TRUE.,LABEL="TREE109"/
&TREE XYZ=712.1,249.2,0,PART_ID="PIPO",FUEL_GEOM="CONE",CROWN_WIDTH=2.956161776 ,CROWN_BASE_HEIGHT=3.309785288,TREE_HEIGHT=6.947082256,OUTPUT_TREE=.TRUE.,LABEL="TREE110"/
&TREE XYZ=712.6,175.3,0,PART_ID="PIPO",FUEL_GEOM="CONE",CROWN_WIDTH=3.90144 ,CROWN_BASE_HEIGHT=4.34,TREE_HEIGHT=8.73,OUTPUT_TREE=.TRUE.,LABEL="TREE111"/
&TREE XYZ=712.9,280.3,0,PART_ID="PSME",FUEL_GEOM="CONE",CROWN_WIDTH=2.49936 ,CROWN_BASE_HEIGHT=1.27,TREE_HEIGHT=4.62,OUTPUT_TREE=.TRUE.,LABEL="TREE112"/
&TREE XYZ=713,130,0,PART_ID="PIPO",FUEL_GEOM="CONE",CROWN_WIDTH=4.63296 ,CROWN_BASE_HEIGHT=2.4,TREE_HEIGHT=9.26,OUTPUT_TREE=.TRUE.,LABEL="TREE113"/
&TREE XYZ=713,128,0,PART_ID="PIPO",FUEL_GEOM="CONE",CROWN_WIDTH=4.96824 ,CROWN_BASE_HEIGHT=2.98,TREE_HEIGHT=5.99,OUTPUT_TREE=.TRUE.,LABEL="TREE114"/
&TREE XYZ=713.3,153.3,0,PART_ID="PIPO",FUEL_GEOM="CONE",CROWN_WIDTH=5.12064 ,CROWN_BASE_HEIGHT=2.75,TREE_HEIGHT=7.8,OUTPUT_TREE=.TRUE.,LABEL="TREE115"/
&TREE XYZ=713.4,241.7,0,PART_ID="PIPO",FUEL_GEOM="CONE",CROWN_WIDTH=3.804490788 ,CROWN_BASE_HEIGHT=3.782768594,TREE_HEIGHT=8.127024778,OUTPUT_TREE=.TRUE.,LABEL="TREE116"/
&TREE XYZ=713.4,219.1,0,PART_ID="PSME",FUEL_GEOM="CONE",CROWN_WIDTH=2.37744 ,CROWN_BASE_HEIGHT=2.67,TREE_HEIGHT=3.56,OUTPUT_TREE=.TRUE.,LABEL="TREE117"/
&TREE XYZ=713.4,184,0,PART_ID="PIPO",FUEL_GEOM="CONE",CROWN_WIDTH=3.81 ,CROWN_BASE_HEIGHT=2.13,TREE_HEIGHT=9.17,OUTPUT_TREE=.TRUE.,LABEL="TREE118"/
&TREE XYZ=713.6,289.2,0,PART_ID="PIPO",FUEL_GEOM="CONE",CROWN_WIDTH=4.48056 ,CROWN_BASE_HEIGHT=2.34,TREE_HEIGHT=5.76,OUTPUT_TREE=.TRUE.,LABEL="TREE119"/
&TREE XYZ=713.7,185.2,0,PART_ID="PIPO",FUEL_GEOM="CONE",CROWN_WIDTH=5.15112 ,CROWN_BASE_HEIGHT=5.25,TREE_HEIGHT=11.66,OUTPUT_TREE=.TRUE.,LABEL="TREE120"/
&TREE XYZ=714,188.5,0,PART_ID="PIPO",FUEL_GEOM="CONE",CROWN_WIDTH=1.92024 ,CROWN_BASE_HEIGHT=3.06,TREE_HEIGHT=6.23,OUTPUT_TREE=.TRUE.,LABEL="TREE121"/
&TREE XYZ=714.2,217.5,0,PART_ID="PIPO",FUEL_GEOM="CONE",CROWN_WIDTH=4.37916528 ,CROWN_BASE_HEIGHT=4.10317664,TREE_HEIGHT=8.92634068,OUTPUT_TREE=.TRUE.,LABEL="TREE122"/
&TREE XYZ=714.2,180.5,0,PART_ID="PIPO",FUEL_GEOM="CONE",CROWN_WIDTH=3.2004 ,CROWN_BASE_HEIGHT=2.68,TREE_HEIGHT=9.57,OUTPUT_TREE=.TRUE.,LABEL="TREE123"/
&TREE XYZ=714.3,201.9,0,PART_ID="PIPO",FUEL_GEOM="CONE",CROWN_WIDTH=4.10551076 ,CROWN_BASE_HEIGHT=3.95060138,TREE_HEIGHT=8.54571406,OUTPUT_TREE=.TRUE.,LABEL="TREE124"/
&TREE XYZ=714.8,235.8,0,PART_ID="PIPO",FUEL_GEOM="CONE",CROWN_WIDTH=4.023414404 ,CROWN_BASE_HEIGHT=3.904828802,TREE_HEIGHT=8.431526074,OUTPUT_TREE=.TRUE.,LABEL="TREE125"/
&TREE XYZ=715,161.2,0,PART_ID="PIPO",FUEL_GEOM="CONE",CROWN_WIDTH=3.44424 ,CROWN_BASE_HEIGHT=4.57,TREE_HEIGHT=9.77,OUTPUT_TREE=.TRUE.,LABEL="TREE126"/
&TREE XYZ=715,140,0,PART_ID="PIPO",FUEL_GEOM="CONE",CROWN_WIDTH=5.54736 ,CROWN_BASE_HEIGHT=5.1,TREE_HEIGHT=10,OUTPUT_TREE=.TRUE.,LABEL="TREE127"/
&TREE XYZ=715,103,0,PART_ID="PIPO",FUEL_GEOM="CONE",CROWN_WIDTH=3.71856 ,CROWN_BASE_HEIGHT=2.21,TREE_HEIGHT=6.14,OUTPUT_TREE=.TRUE.,LABEL="TREE128"/
&TREE XYZ=715.3,288.4,0,PART_ID="PIPO",FUEL_GEOM="CONE",CROWN_WIDTH=2.77368 ,CROWN_BASE_HEIGHT=1.9,TREE_HEIGHT=6.54,OUTPUT_TREE=.TRUE.,LABEL="TREE129"/
&TREE XYZ=715.5,249.7,0,PART_ID="PIPO",FUEL_GEOM="CONE",CROWN_WIDTH=3.092989036 ,CROWN_BASE_HEIGHT=3.386072918,TREE_HEIGHT=7.137395566,OUTPUT_TREE=.TRUE.,LABEL="TREE130"/
&TREE XYZ=715.6,157.1,0,PART_ID="PIPO",FUEL_GEOM="CONE",CROWN_WIDTH=4.51104 ,CROWN_BASE_HEIGHT=2.57,TREE_HEIGHT=8.82,OUTPUT_TREE=.TRUE.,LABEL="TREE131"/
&TREE XYZ=715.9,254.3,0,PART_ID="PIPO",FUEL_GEOM="CONE",CROWN_WIDTH=3.749759884 ,CROWN_BASE_HEIGHT=3.752253542,TREE_HEIGHT=8.050899454,OUTPUT_TREE=.TRUE.,LABEL="TREE132"/
&TREE XYZ=715.9,207.7,0,PART_ID="PIPO",FUEL_GEOM="CONE",CROWN_WIDTH=4.461261636 ,CROWN_BASE_HEIGHT=4.148949218,TREE_HEIGHT=9.040528666,OUTPUT_TREE=.TRUE.,LABEL="TREE133"/
&TREE XYZ=715.9,169.8,0,PART_ID="PIPO",FUEL_GEOM="CONE",CROWN_WIDTH=4.17576 ,CROWN_BASE_HEIGHT=2.33,TREE_HEIGHT=7.66,OUTPUT_TREE=.TRUE.,LABEL="TREE134"/
&TREE XYZ=716,245.7,0,PART_ID="PIPO",FUEL_GEOM="CONE",CROWN_WIDTH=3.175085392 ,CROWN_BASE_HEIGHT=3.431845496,TREE_HEIGHT=7.251583552,OUTPUT_TREE=.TRUE.,LABEL="TREE135"/
&TREE XYZ=716.2,190,0,PART_ID="PIPO",FUEL_GEOM="CONE",CROWN_WIDTH=4.32816 ,CROWN_BASE_HEIGHT=6.11,TREE_HEIGHT=12.62,OUTPUT_TREE=.TRUE.,LABEL="TREE136"/
&TREE XYZ=716.6,230.1,0,PART_ID="PIPO",FUEL_GEOM="CONE",CROWN_WIDTH=4.324434376 ,CROWN_BASE_HEIGHT=4.072661588,TREE_HEIGHT=8.850215356,OUTPUT_TREE=.TRUE.,LABEL="TREE137"/
&TREE XYZ=716.9,275,0,PART_ID="JUSC",FUEL_GEOM="CONE",CROWN_WIDTH=2.1336 ,CROWN_BASE_HEIGHT=0,TREE_HEIGHT=3.65,OUTPUT_TREE=.TRUE.,LABEL="TREE138"/
&TREE XYZ=716.9,254,0,PART_ID="PIPO",FUEL_GEOM="CONE",CROWN_WIDTH=3.038258132 ,CROWN_BASE_HEIGHT=3.355557866,TREE_HEIGHT=7.061270242,OUTPUT_TREE=.TRUE.,LABEL="TREE139"/
&TREE XYZ=717,216.2,0,PART_ID="PIPO",FUEL_GEOM="CONE",CROWN_WIDTH=4.24233802 ,CROWN_BASE_HEIGHT=4.02688901,TREE_HEIGHT=8.73602737,OUTPUT_TREE=.TRUE.,LABEL="TREE140"/
&TREE XYZ=717,140,0,PART_ID="PIPO",FUEL_GEOM="CONE",CROWN_WIDTH=5.73024 ,CROWN_BASE_HEIGHT=4.28,TREE_HEIGHT=10.26,OUTPUT_TREE=.TRUE.,LABEL="TREE141"/
&TREE XYZ=717.4,293.1,0,PART_ID="PIPO",FUEL_GEOM="CONE",CROWN_WIDTH=3.47472 ,CROWN_BASE_HEIGHT=3.12,TREE_HEIGHT=6.62,OUTPUT_TREE=.TRUE.,LABEL="TREE142"/